$ MSC.Nastran input file created on April     03, 2021 at 23:54:54 by
$ Patran 2020  (Student Edition)
$ Direct Text Input for Nastran System Cell Section
$ Direct Text Input for File Management Section
$ Direct Text Input for Executive Control
$ Normal Modes Analysis, Database
SOL 103
CEND
$ Direct Text Input for Global Case Control Data
TITLE = MSC.Nastran job created on 03-Apr-21 at 23:46:45
ECHO = NONE
$ Using Nastran default values for RESVEC
SUBCASE 1
   SUBTITLE=Modos
   METHOD = 1
   SPC = 2
   VECTOR(SORT1,REAL)=ALL
$ Direct Text Input for this Subcase
BEGIN BULK
$ Direct Text Input for Bulk Data
PARAM    POST    0
PARAM   PRTMAXIM YES
EIGRL    1                       10      0                       MASS
$ Elements and Element Properties for region : 2D_Shell_Acero
PSHELL   1       1       .002    1               1
$ Pset: "2D_Shell_Acero" will be imported as: "pshell.1"
CQUAD4   1000    1       1000    1001    1054    1053
CQUAD4   1001    1       1001    1002    1055    1054
CQUAD4   1002    1       1002    1003    1056    1055
CQUAD4   1003    1       1003    1004    1057    1056
CQUAD4   1004    1       1004    1005    1058    1057
CQUAD4   1005    1       1005    1006    1059    1058
CQUAD4   1006    1       1006    1007    1060    1059
CQUAD4   1007    1       1007    1008    1061    1060
CQUAD4   1008    1       1008    1009    1062    1061
CQUAD4   1009    1       1009    1010    1063    1062
CQUAD4   1010    1       1010    1011    1064    1063
CQUAD4   1011    1       1011    1012    1065    1064
CQUAD4   1012    1       1012    1013    1066    1065
CQUAD4   1013    1       1013    1014    1067    1066
CQUAD4   1014    1       1014    1015    1068    1067
CQUAD4   1015    1       1015    1016    1069    1068
CQUAD4   1016    1       1016    1017    1070    1069
CQUAD4   1017    1       1017    1018    1071    1070
CQUAD4   1018    1       1018    1019    1072    1071
CQUAD4   1019    1       1019    1020    1073    1072
$ ... 344 like lines cut
$ Elements and Element Properties for region : Masa
CONM2    1       2001            2500.
$ Referenced Material Records
$ Material Record : Acero
$ Description of Material : Date: 30-Mar-21           Time: 21:04:28
MAT1     1       2.+11           .3      7900.
$ Multipoint Constraints of the Entire Model
$ ID conflict : the PATRAN MPC ID was 1
RBE2     1364    2000    123456  1000    1001    1002    1003    1004
         1005    1006    1007    1008    1009    1010    1011    1012
         1013    1014    1015    1016    1017    1018    1019    1020
         1021    1022    1023    1024    1025    1026    1027    1028
         1029    1030    1031    1032    1033    1034    1035    1036
         1037    1038    1039    1040    1041    1042    1043    1044
         1045    1046    1047    1048    1049    1050    1051
RBE2     2       2001    123456  1371    1372    1373    1374    1375
         1376    1377    1378    1379    1380    1381    1382    1383
         1384    1385    1386    1387    1388    1389    1390    1391
         1392    1393    1394    1395    1396    1397    1398    1399
         1400    1401    1402    1403    1404    1405    1406    1407
         1408    1409    1410    1411    1412    1413    1414    1415
         1416    1417    1418    1419    1420    1421    1422
$ Nodes of the Entire Model
GRID     1000            1.      0.      0.
GRID*    1001                            .9927077293396 .120546251535416
*        0.
GRID*    1002                           .970938086509705.239330753684044
*        0.
GRID*    1003                           .935010194778442.354620903730392
*        0.
GRID*    1004                           .885447382926941 .4647396504879
*        0.
GRID*    1005                           .822972476482391.568081200122833
*        0.
GRID*    1006                           .748496472835541.663138747215271
*        0.
GRID*    1007                           .663105368614197.748526036739349
*        0.
GRID*    1008                           .568044543266296.822997808456421
*        0.
GRID*    1009                           .464700073003769.885468125343323
*        0.
GRID*    1010                           .354579150676727.935025990009308
*        0.
GRID*    1011                           .239287570118904.970948755741119
*        0.
GRID*    1012                           .120506398379803.992712557315826
*        0.
GRID*    1013                           -3.20115104842-5 1.
*        0.
GRID*    1014                           -.12057007104158.992704808712006
*        0.
GRID*    1015                            -.2393497377634.970933437347412
*        0.
GRID*    1016                           -.35463905334473.935003280639648
*        0.
GRID*    1017                           -.46475660800934.885438501834869
*        0.
GRID*    1018                           -.56809741258621.822961330413818
*        0.
GRID*    1019                           -.66315323114395.748483657836914
*        0.
GRID*    1020                           -.74853867292404.663091123104095
*        0.
$ ... 686 like lines cut
GRID     1371            .5      0.      .5
GRID*    1372                           .496353834867477.060273248702288
*        .5
GRID*    1373                            .48546889424324.119666010141373
*        .5
GRID*    1374                           .467504769563675.177311286330223
*        .5
GRID*    1375                           .442723155021667.232370853424072
*        .5
GRID*    1376                           .411485433578491.284041792154312
*        .5
GRID*    1377                            .37424710392952.331570655107498
*        .5
GRID*    1378                           .331551253795624.374264299869537
*        .5
GRID*    1379                           .284020483493805.411500126123428
*        .5
GRID*    1380                            .23234786093235.442735224962234
*        .5
GRID*    1381                           .177287131547928.467513918876648
*        .5
GRID*    1382                           .119640983641148.485475063323975
*        .5
GRID*    1383                           .060250148177147.496356636285782
*        .5
GRID*    1384                           -1.92827192222-5 .5
*        .5
GRID*    1385                           -.06028854846954.496351987123489
*        .5
GRID*    1386                            -.1196785569191.485465794801712
*        .5
GRID*    1387                           -.17732334136963 .46750020980835
*        .5
GRID*    1388                           -.23238223791122.442717164754868
*        .5
GRID*    1389                           -.28405246138573.411478072404861
*        .5
GRID*    1390                            -.3315803706646.374238520860672
*        .5
GRID*    1391                            -.3742727637291.331541687250137
*        .5
$ ... 62 like lines cut
GRID     2000            0.      0.      0.
GRID     2001            0.      0.      .75
$ Loads for Load Case : Modos
SPCADD   2       1
$ Displacement Constraints of Load Set : BC_123456
SPC1     1       123456  2000
$ Referenced Coordinate Frames
ENDDATA eea46a91
