$ MSC.Nastran input file created on June      02, 2021 at 13:07:09 by
$ Patran 2020  (Student Edition)
$ Direct Text Input for Nastran System Cell Section
$ Direct Text Input for File Management Section
$ Direct Text Input for Executive Control
$ Normal Modes Analysis, Database
SOL 103
CEND
$ Direct Text Input for Global Case Control Data
TITLE = MSC.Nastran job created on 02-Jun-21 at 13:00:59
ECHO = NONE
$ Using Nastran default values for RESVEC
SUBCASE 1
$ Subcase name : Default
   SUBTITLE=Default
   METHOD = 1
   VECTOR(SORT1,REAL)=ALL
   SPCFORCES(SORT1,REAL)=ALL
   EXTSEOUT(STIF,DAMP,MASS,EXTID=1,DMIGPCH)
BEGIN BULK
$ Direct Text Input for Bulk Data
PARAM    POST    0
PARAM   PRTMAXIM YES
EIGRL    1                       10      0
$ Elements and Element Properties for region : Beam
PBARL    1       1               ROD
*        5.0000002-4
*
$ Pset: "Beam" will be imported as: "pbarl.1"
CBAR     1000    1       1000    1001    0.      0.      1.
CBAR     1001    1       1001    1002    0.      0.      1.
CBAR     1002    1       1002    1003    0.      0.      1.
CBAR     1003    1       1003    1004    0.      0.      1.
CBAR     1004    1       1004    1005    0.      0.      1.
CBAR     1005    1       1005    1006    0.      0.      1.
CBAR     1006    1       1006    1007    0.      0.      1.
CBAR     1007    1       1007    1008    0.      0.      1.
CBAR     1008    1       1008    1009    0.      0.      1.
CBAR     1009    1       1009    1010    0.      0.      1.
CBAR     1010    1       1010    1011    0.      0.      1.
CBAR     1011    1       1011    1012    0.      0.      1.
CBAR     1012    1       1012    1013    0.      0.      1.
CBAR     1013    1       1013    1014    0.      0.      1.
CBAR     1014    1       1014    1015    0.      0.      1.
CBAR     1015    1       1015    1016    0.      0.      1.
CBAR     1016    1       1016    1017    0.      0.      1.
CBAR     1017    1       1017    1018    0.      0.      1.
CBAR     1018    1       1018    1019    0.      0.      1.
CBAR     1019    1       1019    1020    0.      0.      1.
$ ... 40 like lines cut
$ Referenced Material Records
$ Material Record : Material
$ Description of Material : Date: 02-Jun-21           Time: 12:58:38
MAT1*    1               7.0000001+10                    .3
*        11333.
$ Nodes of the Entire Model
GRID     1000            0.      0.      0.
GRID*    1001                           .010000000707805 0.
*        0.
GRID*    1002                            .02000000141561 0.
*        0.
GRID*    1003                           .030000001192093 0.
*        0.
GRID*    1004                           .040000002831221 0.
*        0.
GRID*    1005                           .050000008195639 0.
*        0.
GRID*    1006                           .060000006109476 0.
*        0.
GRID*    1007                           .070000007748604 0.
*        0.
GRID*    1008                           .080000013113022 0.
*        0.
GRID*    1009                           .090000011026859 0.
*        0.
GRID*    1010                           .100000023841858 0.
*        0.
GRID*    1011                           .110000021755695 0.
*        0.
GRID*    1012                           .120000019669533 0.
*        0.
GRID*    1013                           .130000025033951 0.
*        0.
GRID*    1014                           .140000015497208 0.
*        0.
GRID*    1015                           .150000020861626 0.
*        0.
GRID*    1016                           .160000026226044 0.
*        0.
GRID*    1017                           .170000016689301 0.
*        0.
GRID*    1018                           .180000022053719 0.
*        0.
GRID*    1019                           .190000042319298 0.
*        0.
GRID*    1020                           .200000047683716 0.
*        0.
$ ... 58 like lines cut
GRID     1050            .5      0.      0.
GRID*    1051                           .510000050067902 0.
*        0.
GRID*    1052                           .520000040531158 0.
*        0.
GRID*    1053                           .530000030994415 0.
*        0.
GRID*    1054                           .540000021457672 0.
*        0.
GRID*    1055                           .550000011920929 0.
*        0.
GRID*    1056                           .560000002384186 0.
*        0.
GRID*    1057                           .569999992847443 0.
*        0.
GRID*    1058                           .579999983310699 0.
*        0.
GRID*    1059                           .590000092983246 0.
*        0.
GRID*    1060                           .600000023841858 0.
*        0.
$ Loads for Load Case : Default
$ Referenced Coordinate Frames
ENDDATA f587176f
