$ MSC.Nastran input file created on June      03, 2021 at 10:52:41 by
$ Patran 2020  (Student Edition)
$ Direct Text Input for Nastran System Cell Section
$ Direct Text Input for File Management Section
$ Direct Text Input for Executive Control
$ Normal Modes Analysis, Database
SOL 103
CEND
$ Direct Text Input for Global Case Control Data
TITLE = MSC.Nastran job created on 03-Jun-21 at 10:40:45
ECHO = NONE
$ Using Nastran default values for RESVEC
SUBCASE 1
$ Subcase name : Default
   SUBTITLE=Default
   METHOD = 1
   VECTOR(SORT1,REAL)=ALL
   SPCFORCES(SORT1,REAL)=ALL
   EXTSEOUT(STIF,DAMP,MASS,EXTID=1,DMIGPCH)
BEGIN BULK
$ Direct Text Input for Bulk Data
PARAM    POST    0
PARAM   PRTMAXIM YES
EIGRL    1                       10      0
$ Elements and Element Properties for region : Viga_1
PBARL    1       1               ROD
         .001
$ Pset: "Viga_1" will be imported as: "pbarl.1"
CBAR     1000    1       1000    1001    0.      0.      1.
CBAR     1001    1       1001    1002    0.      0.      1.
CBAR     1002    1       1002    1003    0.      0.      1.
CBAR     1003    1       1003    1004    0.      0.      1.
CBAR     1004    1       1004    1005    0.      0.      1.
CBAR     1005    1       1005    1006    0.      0.      1.
CBAR     1006    1       1006    1007    0.      0.      1.
CBAR     1007    1       1007    1008    0.      0.      1.
CBAR     1008    1       1008    1009    0.      0.      1.
CBAR     1009    1       1009    1010    0.      0.      1.
CBAR     1010    1       1010    1011    0.      0.      1.
CBAR     1011    1       1011    1012    0.      0.      1.
CBAR     1012    1       1012    1013    0.      0.      1.
CBAR     1013    1       1013    1014    0.      0.      1.
CBAR     1014    1       1014    1015    0.      0.      1.
CBAR     1015    1       1015    1016    0.      0.      1.
CBAR     1016    1       1016    1017    0.      0.      1.
CBAR     1017    1       1017    1018    0.      0.      1.
CBAR     1018    1       1018    1019    0.      0.      1.
CBAR     1019    1       1019    1020    0.      0.      1.
$ ... 30 like lines cut
$ Elements and Element Properties for region : Viga_2
PBARL    2       2               ROD
*        5.0000002-4
*
$ Pset: "Viga_2" will be imported as: "pbarl.2"
CBAR     2050    2       1050    2052    0.      0.      1.
CBAR     2051    2       2052    2053    0.      0.      1.
CBAR     2052    2       2053    2054    0.      0.      1.
CBAR     2053    2       2054    2055    0.      0.      1.
CBAR     2054    2       2055    2056    0.      0.      1.
CBAR     2055    2       2056    2057    0.      0.      1.
CBAR     2056    2       2057    2058    0.      0.      1.
CBAR     2057    2       2058    2059    0.      0.      1.
CBAR     2058    2       2059    2060    0.      0.      1.
CBAR     2059    2       2060    2061    0.      0.      1.
CBAR     2060    2       2061    2062    0.      0.      1.
CBAR     2061    2       2062    2063    0.      0.      1.
CBAR     2062    2       2063    2064    0.      0.      1.
CBAR     2063    2       2064    2065    0.      0.      1.
CBAR     2064    2       2065    2066    0.      0.      1.
CBAR     2065    2       2066    2067    0.      0.      1.
CBAR     2066    2       2067    2068    0.      0.      1.
CBAR     2067    2       2068    2069    0.      0.      1.
CBAR     2068    2       2069    2070    0.      0.      1.
CBAR     2069    2       2070    2071    0.      0.      1.
$ ... 40 like lines cut
$ Referenced Material Records
$ Material Record : Viga_1
$ Description of Material : Date: 02-Jun-21           Time: 10:47:42
MAT1     1       2.4+8           .4      1400.
$ Material Record : Viga_2
$ Description of Material : Date: 02-Jun-21           Time: 10:47:42
MAT1*    2               7.0000001+10                    .3
*        11333.
$ Nodes of the Entire Model
GRID     1000            0.      0.      0.
GRID*    1001                           .009999999776483 0.
*        0.
GRID*    1002                           .019999999552965 0.
*        0.
GRID*    1003                           .029999999329448 0.
*        0.
GRID*    1004                            .03999999910593 0.
*        0.
GRID*    1005                           .050000000745058 0.
*        0.
GRID*    1006                           .059999998658895 0.
*        0.
GRID*    1007                           .070000000298023 0.
*        0.
GRID*    1008                           .079999998211861 0.
*        0.
GRID*    1009                           .090000003576279 0.
*        0.
GRID*    1010                           .100000001490116 0.
*        0.
GRID*    1011                           .109999999403954 0.
*        0.
GRID*    1012                           .119999997317791 0.
*        0.
GRID*    1013                           .129999995231628 0.
*        0.
GRID*    1014                           .140000000596046 0.
*        0.
GRID*    1015                           .150000005960464 0.
*        0.
GRID*    1016                           .159999996423721 0.
*        0.
GRID*    1017                           .170000001788139 0.
*        0.
GRID*    1018                           .180000007152557 0.
*        0.
GRID*    1019                           .189999997615814 0.
*        0.
GRID*    1020                           .200000002980232 0.
*        0.
$ ... 8 like lines cut
GRID     1025            .25     0.      0.
GRID*    1026                           .259999990463257 0.
*        0.
GRID*    1027                           .270000010728836 0.
*        0.
GRID*    1028                           .280000001192093 0.
*        0.
GRID*    1029                            .28999999165535 0.
*        0.
GRID*    1030                           .300000011920929 0.
*        0.
GRID*    1031                           .310000002384186 0.
*        0.
GRID*    1032                           .319999992847443 0.
*        0.
GRID*    1033                           .330000013113022 0.
*        0.
GRID*    1034                           .340000003576279 0.
*        0.
GRID*    1035                           .349999994039536 0.
*        0.
GRID*    1036                           .360000014305115 0.
*        0.
GRID*    1037                           .370000004768372 0.
*        0.
GRID*    1038                           .379999995231628 0.
*        0.
GRID*    1039                           .389999985694885 0.
*        0.
GRID*    1040                           .400000005960464 0.
*        0.
GRID*    1041                           .409999996423721 0.
*        0.
GRID*    1042                           .419999986886978 0.
*        0.
GRID*    1043                           .430000007152557 0.
*        0.
GRID*    1044                           .439999997615814 0.
*        0.
GRID*    1045                           .449999988079071 0.
*        0.
$ ... 8 like lines cut
GRID     1050            .5      0.      0.
GRID*    2052                           .509999990463257 0.
*        0.
GRID*    2053                           .519999980926514 0.
*        0.
GRID*    2054                           .529999971389771 0.
*        0.
GRID*    2055                           .540000021457672 0.
*        0.
GRID*    2056                           .550000011920929 0.
*        0.
GRID*    2057                           .560000002384186 0.
*        0.
GRID*    2058                           .569999992847443 0.
*        0.
GRID*    2059                           .579999983310699 0.
*        0.
GRID*    2060                           .590000033378601 0.
*        0.
GRID*    2061                           .600000023841858 0.
*        0.
GRID*    2062                           .610000014305115 0.
*        0.
GRID*    2063                           .620000004768372 0.
*        0.
GRID*    2064                           .630000054836273 0.
*        0.
GRID*    2065                            .64000004529953 0.
*        0.
GRID*    2066                           .650000035762787 0.
*        0.
GRID*    2067                           .660000026226044 0.
*        0.
GRID*    2068                           .670000016689301 0.
*        0.
GRID*    2069                           .680000007152557 0.
*        0.
GRID*    2070                           .690000057220459 0.
*        0.
GRID*    2071                           .700000047683716 0.
*        0.
$ ... 58 like lines cut
GRID     2101            1.      0.      0.
GRID*    2102                           1.01000010967255 0.
*        0.
GRID*    2103                            1.0200001001358 0.
*        0.
GRID*    2104                           1.03000009059906 0.
*        0.
GRID*    2105                           1.04000008106232 0.
*        0.
GRID*    2106                           1.05000007152557 0.
*        0.
GRID*    2107                           1.06000006198883 0.
*        0.
GRID*    2108                           1.07000005245209 0.
*        0.
GRID*    2109                           1.08000004291534 0.
*        0.
GRID*    2110                            1.0900000333786 0.
*        0.
GRID*    2111                           1.10000002384186 0.
*        0.
$ Loads for Load Case : Default
$ Referenced Coordinate Frames
ENDDATA e05ea4d1
