INCLUDE 'Shell.bdf'
INCLUDE 'Rig_Ext.bdf'
INCLUDE 'Rig_Int.bdf'
$ Elements and Element Properties for region : 0D_Mass_12kg
CONM2    1       1               12.
$ Referenced Material Records
$ Material Record : Al_7075
$ Description of Material : Date: 23-Apr-21           Time: 12:02:47
MAT1*    1               7.0999998+10                    .33
*        2800.           2.2-5           20.
$ Multipoint Constraints of the Entire Model
$ ID conflict : the PATRAN MPC ID was 1
RBE2*    2784            1               123456         1008
*        1009            1070            1101           2.200000017183-5
$ Nodes of the Entire Model
GRID*    1                               0.              0.
*       .079999998211861
GRID     1000            0.      0.      0.
GRID*    1001                           .019166624173522 0.
*        0.
GRID*    1002                           .038333248347044 0.
*        0.
GRID*    1003                           .057499870657921 0.
*        0.
GRID*    1004                           .076666496694088 0.
*        0.
GRID*    1005                           .095833122730255 0.
*        0.
GRID*    1006                           .114999733865261 0.
*        0.
GRID*    1007                           .134166374802589 0.
*        0.
GRID*    1008                           .153332993388176 0.
*        0.
GRID*    1009                            -6.702398192-9 .153332993388176
*        0.
GRID*    1010                            -5.8645985845-9.134166374802589
*        0.
GRID*    1011                            -5.026798533-9 .114999741315842
*        0.
GRID*    1012                            -4.1889989255-9.095833122730255
*        0.
GRID*    1013                            -3.351199096-9 .076666496694088
*        0.
GRID*    1014                            -2.5133992665-9.057499870657921
*        0.
GRID*    1015                            -1.6755998811-9.038333255797625
*        0.
GRID*    1016                            -8.37799774-10 .019166624173522
*        0.
GRID*    1017                           .153332993388176 .0635130032897
*        0.
GRID*    1018                           .138362929224968.078482933342457
*        0.
GRID*    1019                            .12339286506176.093452870845795
*        0.
GRID*    1020                           .108422800898552.108422800898552
*        0.
$ ... 1616 like lines cut