INCLUDE 'Shell.bdf'
INCLUDE 'Rig_Ext.bdf'
INCLUDE 'Rig_Int.bdf'

$ Elements and Element Properties for region : 0D_Mass_12kg
CONM2    1       1               12.
*                        0.              1.3541666-10
*
$ Elements and Element Properties for region : 1D_CBUSH
PBUSH    4       K       1.+9    1.+9    1.+9    100.    1.+7    1.+7
$ Pset: "1D_CBUSH" will be imported as: "pbush.4"
CBUSH    2       4       1016    12      0.      1.      0.
CBUSH    3       4       1039    13      0.      1.      0.
CBUSH    4       4       1055    14      0.      1.      0.
CBUSH    5       4       1093    15      0.      1.      0.
CBUSH    6       4       1131    16      0.      1.      0.
CBUSH    7       4       1152    17      0.      1.      0.
CBUSH    8       4       1164    18      0.      1.      0.
CBUSH    9       4       1202    19      0.      1.      0.
CBUSH    10      4       1223    20      0.      1.      0.
CBUSH    11      4       1235    21      0.      1.      0.
CBUSH    12      4       1267    22      0.      1.      0.
CBUSH    13      4       1008    11      0.      1.      0.
$ Elements and Element Properties for region : 0D_Mass_43-32kg
CONM2    3776    2               43.32
$ Referenced Material Records
$ Material Record : Al_7075
$ Description of Material : Date: 21-Apr-21           Time: 20:56:42
MAT1*    1               7.0999998+10                    .33
*        2800.           2.2-5           20.
$ Multipoint Constraints of the Entire Model
$ ID conflict : the PATRAN MPC ID was 2
RBE2     3777    1       123     1007    1054    1142    1213
$ ID conflict : the PATRAN MPC ID was 3
RBE2     3778    2       123456  1012    1021    1035    1047    1059
         1102    1115    1140    1153    1173    1186    1211    1224
         1244    1257    1278    1285    1286    1287    1288    1289
         1290    1291    1292    1293    1294    1295    1296    1297
         1298    1299    1300    1301    1302    1303    1304    1305
         1306    1307    1308    1309    1310    1311    1312    1313
         1314    1315    1316    1317    1318    1319    1320    1321
         1322    1323    1324    1325    1326    1327    1328    1329
         1330    1331    1332    1333    1334    1335    1336    1337
         1338    1339    1340    1341    1342    1343    1344    1345
         1346    1347    1348    1349    1350    1351    1352    1353
         1354    1355    1356    1357    1358    1359    1360    1361
         1362    1363    1364
$ Nodes of the Entire Model
GRID*    1                               0.              0.
*       .079999998211861
GRID*    2                               0.              0.
*       .379999995231628
GRID*    11                              .15333366394043 0.
*        -.02
GRID*    12                              .13416700065136.055573999881744
*        -.02
GRID*    13                             .055573645979166.134167149662971
*        -.02
GRID*    14                              0.              .15333366394043
*        -.02
GRID*    15                             -.05557400733232 .13416700065136
*        -.02
GRID*    16                             -.13416714966297.055573638528585
*        -.02
GRID*    17                             -.15333366394043 -6.7024275019-9
*        -.02
GRID*    18                             -.13416700065136-.05557401105762
*        -.02
GRID*    19                              -.0555736348033-.13416714966297
*        -.02
GRID*    20                             1.340485500378-8-.15333366394043
*        -.02
GRID*    21                             .055573999881744-.13416700065136
*        -.02
GRID*    22                             .134167149662971-.05557364597917
*        -.02
GRID     1000            0.      0.      0.
GRID*    1001                           .019167499616742 0.
*        0.
GRID*    1002                           .038334999233484 0.
*        0.
GRID*    1003                           .057502500712872 0.
*        0.
GRID*    1004                           .076669998466969 0.
*        0.
GRID*    1005                           .095835663378239 0.
*        0.
GRID*    1006                           .115001335740089 0.
*        0.
GRID*    1007                            .13416700065136 0.
*        0.
GRID*    1008                            .15333366394043 0.
*        0.
GRID*    1009                           .172500342130661 0.
*        0.
GRID*    1010                           .191667005419731 0.
*        0.
GRID*    1011                           .210833504796028 0.
*        0.
GRID*    1012                           .230000004172325 0.
*        0.
GRID*    1013                           .076669998466969.031755998730659
*        0.
GRID*    1014                           .095835663378239.039695333689451
*        0.
GRID*    1015                           .115001335740089.047634664922953
*        0.
GRID*    1016                            .13416700065136.055573999881744
*        0.
GRID*    1017                            .15333366394043 .0635130032897
*        0.
GRID*    1018                           .172500342130661.071451999247074
*        0.
GRID*    1019                           .191667005419731.079391002655029
*        0.
GRID*    1020                           .210833504796028.087329998612404
*        0.
$ ... 1568 like lines cut