$ MSC.Nastran input file created on April     02, 2021 at 16:42:50 by
$ Patran 2020  (Student Edition)
$ Direct Text Input for Nastran System Cell Section
$ Direct Text Input for File Management Section
$ Direct Text Input for Executive Control
$ Buckling Analysis, Database
SOL 105
CEND
$ Direct Text Input for Global Case Control Data
TITLE = MSC.Nastran job created on 31-Mar-21 at 13:18:08
ECHO = NONE
SUBCASE 1
   SUBTITLE=Pandeo_1
   SPC = 2
   LOAD = 2
   DISPLACEMENT(SORT1,REAL)=ALL
   SPCFORCES(SORT1,REAL)=ALL
SUBCASE 2
   SUBTITLE=Pandeo_1
   SPC = 2
   METHOD = 1
   VECTOR(SORT1,REAL)=ALL
   SPCFORCES(SORT1,REAL)=ALL
   STATSUB = 1
$ Direct Text Input for this Subcase
BEGIN BULK
$ Direct Text Input for Bulk Data
PARAM    POST    0
PARAM   PRTMAXIM YES
EIGRL    1                       1       0
$ Elements and Element Properties for region : 1D_Beam
PBAR     1       1       4.4-5   3.092-9
$ Pset: "1D_Beam" will be imported as: "pbar.1"
CBAR     1       1       1       2       1.      0.      0.
CBAR     2       1       2       3       1.      0.      0.
CBAR     3       1       3       4       1.      0.      0.
CBAR     4       1       4       5       1.      0.      0.
CBAR     5       1       5       6       1.      0.      0.
CBAR     6       1       6       7       1.      0.      0.
CBAR     7       1       7       8       1.      0.      0.
CBAR     8       1       8       9       1.      0.      0.
CBAR     9       1       9       10      1.      0.      0.
CBAR     10      1       10      11      1.      0.      0.
CBAR     11      1       11      12      1.      0.      0.
CBAR     12      1       12      13      1.      0.      0.
CBAR     13      1       13      14      1.      0.      0.
CBAR     14      1       14      15      1.      0.      0.
CBAR     15      1       15      16      1.      0.      0.
CBAR     16      1       16      17      1.      0.      0.
CBAR     17      1       17      18      1.      0.      0.
CBAR     18      1       18      19      1.      0.      0.
CBAR     19      1       19      20      1.      0.      0.
CBAR     20      1       20      21      1.      0.      0.
$ ... 980 like lines cut
$ Referenced Material Records
$ Material Record : Aluminio
$ Description of Material : Date: 31-Mar-21           Time: 13:12:30
MAT1*    1               7.3200001+10                    .33
*        2800.
$ Nodes of the Entire Model
GRID     1               0.      0.      0.
GRID*    2                               0.              0.
*       .001100000110455
GRID*    3                               0.              0.
*        .00220000022091
GRID*    4                               0.              0.
*       .003300000214949
GRID*    5                               0.              0.
*       .004400000441819
GRID*    6                               0.              0.
*       .005499999970198
GRID*    7                               0.              0.
*       .006600000429899
GRID*    8                               0.              0.
*       .007700000423938
GRID*    9                               0.              0.
*       .008800000883639
GRID*    10                              0.              0.
*       .009899999946356
GRID*    11                              0.              0.
*       .010999999940395
GRID*    12                              0.              0.
*       .012099999934435
GRID*    13                              0.              0.
*        .01320000179112
GRID*    14                              0.              0.
*       .014300001785159
GRID*    15                              0.              0.
*       .015400001779199
GRID*    16                              0.              0.
*       .016500001773238
GRID*    17                              0.              0.
*       .017600003629923
GRID*    18                              0.              0.
*       .018700003623962
GRID*    19                              0.              0.
*       .019800001755357
GRID*    20                              0.              0.
*       .020900001749396
GRID*    21                              0.              0.
*       .022000001743436
$ ... 1208 like lines cut
GRID     626             0.      0.      .6875
GRID*    627                             0.              0.
*        .68860000371933
GRID*    628                             0.              0.
*        .68970000743866
GRID*    629                             0.              0.
*        .69080001115799
GRID*    630                             0.              0.
*       .691900014877319
GRID*    631                             0.              0.
*       .693000018596649
GRID*    632                             0.              0.
*       .694100022315979
GRID*    633                             0.              0.
*       .695200026035309
GRID*    634                             0.              0.
*       .696300029754639
GRID*    635                             0.              0.
*       .697400033473969
GRID*    636                             0.              0.
*       .698499977588654
GRID*    637                             0.              0.
*       .699599981307983
GRID*    638                             0.              0.
*       .700700044631958
GRID*    639                             0.              0.
*       .701800048351288
GRID*    640                             0.              0.
*       .702899992465973
GRID*    641                             0.              0.
*       .703999996185303
GRID*    642                             0.              0.
*       .705099999904633
GRID*    643                             0.              0.
*       .706200063228607
GRID*    644                             0.              0.
*       .707300007343292
GRID*    645                             0.              0.
*       .708400011062622
GRID*    646                             0.              0.
*       .709500014781952
$ ... 710 like lines cut
$ Loads for Load Case : Pandeo_1
SPCADD   2       1       3
LOAD     2       1.      1.      1
$ Displacement Constraints of Load Set : SPC_12
SPC1     1       12      1001
$ Displacement Constraints of Load Set : SPC_1236
SPC1     3       1236    1
$ Nodal Forces of Load Set : Fuerza_Pandeo
FORCE    1       1001    0       1.      0.      0.      -1.
$ Referenced Coordinate Frames
ENDDATA 496dce31
