$ MSC.Nastran input file created on April     28, 2021 at 19:24:46 by
$ Patran 2020  (Student Edition)
$ Direct Text Input for Nastran System Cell Section
$ Direct Text Input for File Management Section
$ Direct Text Input for Executive Control
$ Normal Modes Analysis, Database
SOL 103
CEND
$ Direct Text Input for Global Case Control Data
TITLE = MSC.Nastran job created on 24-Apr-21 at 16:53:12
ECHO = NONE
$ Using Nastran default values for RESVEC
SUBCASE 1
   SUBTITLE=Modos
   METHOD = 1
   SPC = 2
   VECTOR(SORT1,REAL)=ALL
$ Direct Text Input for this Subcase
BEGIN BULK
$ Direct Text Input for Bulk Data
PARAM    POST    0
PARAM   PRTMAXIM YES
EIGRL    1                       10      0                       MASS
$ Elements and Element Properties for region : 2D_Shell
PSHELL   1       1       .002    1               1
$ Pset: "2D_Shell" will be imported as: "pshell.1"
CQUAD4   3000    1       1004    1060    1365    1003
CQUAD4   3001    1       1060    1013    1366    1365
CQUAD4   3002    1       1003    1365    1367    1002
CQUAD4   3003    1       1365    1366    1368    1367
CQUAD4   3004    1       1002    1367    1371    1001
CQUAD4   3005    1       1367    1368    1370    1371
CQUAD4   3006    1       1368    1366    1369    1370
CQUAD4   3007    1       1366    1013    1061    1369
CQUAD4   3008    1       1001    1371    1043    1000
CQUAD4   3009    1       1371    1370    1044    1043
CQUAD4   3010    1       1370    1369    1045    1044
CQUAD4   3011    1       1369    1061    1022    1045
CQUAD4   3012    1       1007    1064    1372    1006
CQUAD4   3013    1       1064    1065    1373    1372
CQUAD4   3014    1       1065    1016    1015    1373
CQUAD4   3015    1       1006    1372    1374    1005
CQUAD4   3016    1       1372    1373    1375    1374
CQUAD4   3017    1       1373    1015    1014    1375
CQUAD4   3018    1       1005    1374    1060    1004
CTRIA3   3019    1       1374    1375    1060
CQUAD4   3020    1       1375    1014    1013    1060
CQUAD4   3021    1       1010    1072    1376    1009
CQUAD4   3022    1       1072    1073    1377    1376
CQUAD4   3023    1       1073    1074    1378    1377
CQUAD4   3024    1       1074    1019    1018    1378
CQUAD4   3025    1       1009    1376    1379    1008
CQUAD4   3026    1       1376    1377    1380    1379
CQUAD4   3027    1       1377    1378    1381    1380
CQUAD4   3028    1       1378    1018    1017    1381
CQUAD4   3029    1       1008    1379    1064    1007
CTRIA3   3030    1       1379    1380    1064
CQUAD4   3031    1       1380    1381    1065    1064
CQUAD4   3032    1       1381    1017    1016    1065
CQUAD4   3033    1       1012    1311    1382    1011
CQUAD4   3034    1       1311    1312    1383    1382
CQUAD4   3035    1       1312    1313    1384    1383
CQUAD4   3036    1       1313    1314    1385    1384
CQUAD4   3037    1       1314    1021    1020    1385
CQUAD4   3038    1       1011    1382    1072    1010
CQUAD4   3039    1       1382    1383    1073    1072
CTRIA3   3040    1       1383    1384    1073
CQUAD4   3041    1       1384    1385    1074    1073
CQUAD4   3042    1       1385    1020    1019    1074
CQUAD4   3043    1       1016    1066    1386    1015
CQUAD4   3044    1       1066    1067    1387    1386
CQUAD4   3045    1       1067    1025    1024    1387
CQUAD4   3046    1       1015    1386    1388    1014
CQUAD4   3047    1       1386    1387    1389    1388
CQUAD4   3048    1       1387    1024    1023    1389
CQUAD4   3049    1       1014    1388    1061    1013
CTRIA3   3050    1       1388    1389    1061
CQUAD4   3051    1       1389    1023    1022    1061
CQUAD4   3052    1       1019    1075    1390    1018
CQUAD4   3053    1       1075    1076    1391    1390
CQUAD4   3054    1       1076    1077    1392    1391
CQUAD4   3055    1       1077    1028    1027    1392
CQUAD4   3056    1       1018    1390    1393    1017
CQUAD4   3057    1       1390    1391    1394    1393
CQUAD4   3058    1       1391    1392    1395    1394
CQUAD4   3059    1       1392    1027    1026    1395
CQUAD4   3060    1       1017    1393    1066    1016
CTRIA3   3061    1       1393    1394    1066
CQUAD4   3062    1       1394    1395    1067    1066
CQUAD4   3063    1       1395    1026    1025    1067
CQUAD4   3064    1       1021    1305    1404    1020
CQUAD4   3065    1       1305    1306    1400    1404
CQUAD4   3066    1       1306    1307    1399    1400
CQUAD4   3067    1       1307    1308    1398    1399
CQUAD4   3068    1       1308    1309    1397    1398
CQUAD4   3069    1       1309    1310    1396    1397
CQUAD4   3070    1       1310    1035    1034    1396
CQUAD4   3071    1       1020    1404    1414    1019
CQUAD4   3072    1       1404    1400    1409    1414
CQUAD4   3073    1       1400    1399    1405    1409
CQUAD4   3074    1       1399    1398    1403    1405
CQUAD4   3075    1       1398    1397    1401    1403
CQUAD4   3076    1       1397    1396    1402    1401
CQUAD4   3077    1       1396    1034    1033    1402
CQUAD4   3078    1       1019    1414    1417    1075
CQUAD4   3079    1       1414    1409    1413    1417
CQUAD4   3080    1       1409    1405    1410    1413
CQUAD4   3081    1       1405    1403    1406    1410
$ ... 34 like lines cut
CTRIA3   3116    1       1429    1430    1062
CQUAD4   3117    1       1430    1037    1036    1062
CQUAD4   3118    1       1028    1078    1431    1027
CQUAD4   3119    1       1078    1079    1432    1431
CQUAD4   3120    1       1079    1080    1433    1432
CQUAD4   3121    1       1080    1042    1041    1433
CQUAD4   3122    1       1027    1431    1434    1026
CQUAD4   3123    1       1431    1432    1435    1434
CQUAD4   3124    1       1432    1433    1436    1435
CQUAD4   3125    1       1433    1041    1040    1436
CQUAD4   3126    1       1026    1434    1068    1025
CTRIA3   3127    1       1434    1435    1068
CQUAD4   3128    1       1435    1436    1069    1068
CQUAD4   3129    1       1436    1040    1039    1069
CQUAD4   3130    1       1035    1299    1437    1034
CQUAD4   3131    1       1299    1300    1438    1437
CQUAD4   3132    1       1300    1301    1439    1438
CQUAD4   3133    1       1301    1302    1440    1439
CQUAD4   3134    1       1302    1303    1441    1440
CQUAD4   3135    1       1303    1304    1445    1441
CQUAD4   3136    1       1304    1047    1046    1445
CQUAD4   3137    1       1034    1437    1442    1033
CQUAD4   3138    1       1437    1438    1443    1442
CQUAD4   3139    1       1438    1439    1444    1443
CQUAD4   3140    1       1439    1440    1446    1444
CQUAD4   3141    1       1440    1441    1450    1446
CQUAD4   3142    1       1441    1445    1455    1450
CQUAD4   3143    1       1445    1046    1042    1455
CQUAD4   3144    1       1033    1442    1449    1032
CQUAD4   3145    1       1442    1443    1448    1449
CQUAD4   3146    1       1443    1444    1447    1448
CQUAD4   3147    1       1444    1446    1451    1447
$ ... 22 like lines cut
CTRIA3   3170    1       1463    1464    1063
CQUAD4   3171    1       1464    1052    1051    1063
CQUAD4   3172    1       1042    1081    1465    1041
CQUAD4   3173    1       1081    1082    1466    1465
CQUAD4   3174    1       1082    1083    1467    1466
CQUAD4   3175    1       1083    1057    1056    1467
CQUAD4   3176    1       1041    1465    1468    1040
CQUAD4   3177    1       1465    1466    1469    1468
CQUAD4   3178    1       1466    1467    1470    1469
CQUAD4   3179    1       1467    1056    1055    1470
CQUAD4   3180    1       1040    1468    1070    1039
CTRIA3   3181    1       1468    1469    1070
CQUAD4   3182    1       1469    1470    1071    1070
CQUAD4   3183    1       1470    1055    1054    1071
CQUAD4   3184    1       1047    1295    1471    1046
CQUAD4   3185    1       1295    1296    1472    1471
CQUAD4   3186    1       1296    1297    1473    1472
CQUAD4   3187    1       1297    1298    1474    1473
CQUAD4   3188    1       1298    1059    1058    1474
CQUAD4   3189    1       1046    1471    1081    1042
CQUAD4   3190    1       1471    1472    1082    1081
CTRIA3   3191    1       1472    1473    1082
CQUAD4   3192    1       1473    1474    1083    1082
CQUAD4   3193    1       1474    1058    1057    1083
CQUAD4   3194    1       1051    1090    1475    1050
CQUAD4   3195    1       1090    1088    1476    1475
CQUAD4   3196    1       1050    1475    1477    1049
CQUAD4   3197    1       1475    1476    1478    1477
CQUAD4   3198    1       1049    1477    1481    1048
CQUAD4   3199    1       1477    1478    1480    1481
CQUAD4   3200    1       1478    1476    1479    1480
CQUAD4   3201    1       1476    1088    1089    1479
CQUAD4   3202    1       1048    1481    1084    1000
CQUAD4   3203    1       1481    1480    1085    1084
CQUAD4   3204    1       1480    1479    1086    1085
CQUAD4   3205    1       1479    1089    1087    1086
CQUAD4   3206    1       1054    1091    1482    1053
CQUAD4   3207    1       1091    1092    1483    1482
CQUAD4   3208    1       1092    1093    1094    1483
CQUAD4   3209    1       1053    1482    1484    1052
CQUAD4   3210    1       1482    1483    1485    1484
CQUAD4   3211    1       1483    1094    1095    1485
CQUAD4   3212    1       1052    1484    1090    1051
CTRIA3   3213    1       1484    1485    1090
CQUAD4   3214    1       1485    1095    1088    1090
CQUAD4   3215    1       1057    1096    1486    1056
CQUAD4   3216    1       1096    1097    1487    1486
CQUAD4   3217    1       1097    1098    1488    1487
CQUAD4   3218    1       1098    1099    1100    1488
CQUAD4   3219    1       1056    1486    1489    1055
CQUAD4   3220    1       1486    1487    1490    1489
CQUAD4   3221    1       1487    1488    1491    1490
CQUAD4   3222    1       1488    1100    1101    1491
CQUAD4   3223    1       1055    1489    1091    1054
CTRIA3   3224    1       1489    1490    1091
CQUAD4   3225    1       1490    1491    1092    1091
CQUAD4   3226    1       1491    1101    1093    1092
CQUAD4   3227    1       1059    1291    1492    1058
CQUAD4   3228    1       1291    1292    1493    1492
CQUAD4   3229    1       1292    1293    1494    1493
CQUAD4   3230    1       1293    1294    1495    1494
CQUAD4   3231    1       1294    1102    1103    1495
CQUAD4   3232    1       1058    1492    1096    1057
CQUAD4   3233    1       1492    1493    1097    1096
CTRIA3   3234    1       1493    1494    1097
CQUAD4   3235    1       1494    1495    1098    1097
CQUAD4   3236    1       1495    1103    1099    1098
CQUAD4   3237    1       1093    1107    1496    1094
CQUAD4   3238    1       1107    1108    1497    1496
CQUAD4   3239    1       1108    1104    1105    1497
CQUAD4   3240    1       1094    1496    1498    1095
CQUAD4   3241    1       1496    1497    1499    1498
CQUAD4   3242    1       1497    1105    1106    1499
CQUAD4   3243    1       1095    1498    1089    1088
CTRIA3   3244    1       1498    1499    1089
CQUAD4   3245    1       1499    1106    1087    1089
CQUAD4   3246    1       1099    1109    1500    1100
CQUAD4   3247    1       1109    1110    1501    1500
CQUAD4   3248    1       1110    1111    1502    1501
CQUAD4   3249    1       1111    1112    1113    1502
CQUAD4   3250    1       1100    1500    1503    1101
CQUAD4   3251    1       1500    1501    1504    1503
CQUAD4   3252    1       1501    1502    1505    1504
CQUAD4   3253    1       1502    1113    1114    1505
CQUAD4   3254    1       1101    1503    1107    1093
CTRIA3   3255    1       1503    1504    1107
CQUAD4   3256    1       1504    1505    1108    1107
CQUAD4   3257    1       1505    1114    1104    1108
CQUAD4   3258    1       1102    1285    1514    1103
CQUAD4   3259    1       1285    1286    1510    1514
CQUAD4   3260    1       1286    1287    1509    1510
CQUAD4   3261    1       1287    1288    1508    1509
CQUAD4   3262    1       1288    1289    1507    1508
CQUAD4   3263    1       1289    1290    1506    1507
CQUAD4   3264    1       1290    1115    1116    1506
CQUAD4   3265    1       1103    1514    1524    1099
CQUAD4   3266    1       1514    1510    1519    1524
CQUAD4   3267    1       1510    1509    1515    1519
CQUAD4   3268    1       1509    1508    1513    1515
CQUAD4   3269    1       1508    1507    1511    1513
CQUAD4   3270    1       1507    1506    1512    1511
CQUAD4   3271    1       1506    1116    1117    1512
CQUAD4   3272    1       1099    1524    1527    1109
CQUAD4   3273    1       1524    1519    1523    1527
CQUAD4   3274    1       1519    1515    1520    1523
CQUAD4   3275    1       1515    1513    1516    1520
$ ... 34 like lines cut
CTRIA3   3310    1       1539    1540    1128
CQUAD4   3311    1       1540    1133    1126    1128
CQUAD4   3312    1       1112    1134    1541    1113
CQUAD4   3313    1       1134    1135    1542    1541
CQUAD4   3314    1       1135    1136    1543    1542
CQUAD4   3315    1       1136    1137    1138    1543
CQUAD4   3316    1       1113    1541    1544    1114
CQUAD4   3317    1       1541    1542    1545    1544
CQUAD4   3318    1       1542    1543    1546    1545
CQUAD4   3319    1       1543    1138    1139    1546
CQUAD4   3320    1       1114    1544    1129    1104
CTRIA3   3321    1       1544    1545    1129
CQUAD4   3322    1       1545    1546    1130    1129
CQUAD4   3323    1       1546    1139    1131    1130
CQUAD4   3324    1       1115    1359    1547    1116
CQUAD4   3325    1       1359    1360    1548    1547
CQUAD4   3326    1       1360    1361    1549    1548
CQUAD4   3327    1       1361    1362    1550    1549
CQUAD4   3328    1       1362    1363    1551    1550
CQUAD4   3329    1       1363    1364    1555    1551
CQUAD4   3330    1       1364    1140    1141    1555
CQUAD4   3331    1       1116    1547    1552    1117
CQUAD4   3332    1       1547    1548    1553    1552
CQUAD4   3333    1       1548    1549    1554    1553
CQUAD4   3334    1       1549    1550    1556    1554
CQUAD4   3335    1       1550    1551    1560    1556
CQUAD4   3336    1       1551    1555    1565    1560
CQUAD4   3337    1       1555    1141    1137    1565
CQUAD4   3338    1       1117    1552    1559    1118
CQUAD4   3339    1       1552    1553    1558    1559
CQUAD4   3340    1       1553    1554    1557    1558
CQUAD4   3341    1       1554    1556    1561    1557
$ ... 22 like lines cut
CTRIA3   3364    1       1573    1574    1127
CQUAD4   3365    1       1574    1144    1125    1127
CQUAD4   3366    1       1137    1147    1575    1138
CQUAD4   3367    1       1147    1148    1576    1575
CQUAD4   3368    1       1148    1149    1577    1576
CQUAD4   3369    1       1149    1150    1151    1577
CQUAD4   3370    1       1138    1575    1578    1139
CQUAD4   3371    1       1575    1576    1579    1578
CQUAD4   3372    1       1576    1577    1580    1579
CQUAD4   3373    1       1577    1151    1152    1580
CQUAD4   3374    1       1139    1578    1145    1131
CTRIA3   3375    1       1578    1579    1145
CQUAD4   3376    1       1579    1580    1146    1145
CQUAD4   3377    1       1580    1152    1142    1146
CQUAD4   3378    1       1140    1355    1581    1141
CQUAD4   3379    1       1355    1356    1582    1581
CQUAD4   3380    1       1356    1357    1583    1582
CQUAD4   3381    1       1357    1358    1584    1583
CQUAD4   3382    1       1358    1153    1154    1584
CQUAD4   3383    1       1141    1581    1147    1137
CQUAD4   3384    1       1581    1582    1148    1147
CTRIA3   3385    1       1582    1583    1148
CQUAD4   3386    1       1583    1584    1149    1148
CQUAD4   3387    1       1584    1154    1150    1149
CQUAD4   3388    1       1125    1161    1585    1124
CQUAD4   3389    1       1161    1159    1586    1585
CQUAD4   3390    1       1124    1585    1587    1123
CQUAD4   3391    1       1585    1586    1588    1587
CQUAD4   3392    1       1123    1587    1591    1122
CQUAD4   3393    1       1587    1588    1590    1591
CQUAD4   3394    1       1588    1586    1589    1590
CQUAD4   3395    1       1586    1159    1160    1589
CQUAD4   3396    1       1122    1591    1155    1000
CQUAD4   3397    1       1591    1590    1156    1155
CQUAD4   3398    1       1590    1589    1157    1156
CQUAD4   3399    1       1589    1160    1158    1157
CQUAD4   3400    1       1142    1162    1592    1143
CQUAD4   3401    1       1162    1163    1593    1592
CQUAD4   3402    1       1163    1164    1165    1593
CQUAD4   3403    1       1143    1592    1594    1144
CQUAD4   3404    1       1592    1593    1595    1594
CQUAD4   3405    1       1593    1165    1166    1595
CQUAD4   3406    1       1144    1594    1161    1125
CTRIA3   3407    1       1594    1595    1161
CQUAD4   3408    1       1595    1166    1159    1161
CQUAD4   3409    1       1150    1167    1596    1151
CQUAD4   3410    1       1167    1168    1597    1596
CQUAD4   3411    1       1168    1169    1598    1597
CQUAD4   3412    1       1169    1170    1171    1598
CQUAD4   3413    1       1151    1596    1599    1152
CQUAD4   3414    1       1596    1597    1600    1599
CQUAD4   3415    1       1597    1598    1601    1600
CQUAD4   3416    1       1598    1171    1172    1601
CQUAD4   3417    1       1152    1599    1162    1142
CTRIA3   3418    1       1599    1600    1162
CQUAD4   3419    1       1600    1601    1163    1162
CQUAD4   3420    1       1601    1172    1164    1163
CQUAD4   3421    1       1153    1351    1602    1154
CQUAD4   3422    1       1351    1352    1603    1602
CQUAD4   3423    1       1352    1353    1604    1603
CQUAD4   3424    1       1353    1354    1605    1604
CQUAD4   3425    1       1354    1173    1174    1605
CQUAD4   3426    1       1154    1602    1167    1150
CQUAD4   3427    1       1602    1603    1168    1167
CTRIA3   3428    1       1603    1604    1168
CQUAD4   3429    1       1604    1605    1169    1168
CQUAD4   3430    1       1605    1174    1170    1169
CQUAD4   3431    1       1164    1178    1606    1165
CQUAD4   3432    1       1178    1179    1607    1606
CQUAD4   3433    1       1179    1175    1176    1607
CQUAD4   3434    1       1165    1606    1608    1166
CQUAD4   3435    1       1606    1607    1609    1608
CQUAD4   3436    1       1607    1176    1177    1609
CQUAD4   3437    1       1166    1608    1160    1159
CTRIA3   3438    1       1608    1609    1160
CQUAD4   3439    1       1609    1177    1158    1160
CQUAD4   3440    1       1170    1180    1610    1171
CQUAD4   3441    1       1180    1181    1611    1610
CQUAD4   3442    1       1181    1182    1612    1611
CQUAD4   3443    1       1182    1183    1184    1612
CQUAD4   3444    1       1171    1610    1613    1172
CQUAD4   3445    1       1610    1611    1614    1613
CQUAD4   3446    1       1611    1612    1615    1614
CQUAD4   3447    1       1612    1184    1185    1615
CQUAD4   3448    1       1172    1613    1178    1164
CTRIA3   3449    1       1613    1614    1178
CQUAD4   3450    1       1614    1615    1179    1178
CQUAD4   3451    1       1615    1185    1175    1179
CQUAD4   3452    1       1173    1345    1624    1174
CQUAD4   3453    1       1345    1346    1620    1624
CQUAD4   3454    1       1346    1347    1619    1620
CQUAD4   3455    1       1347    1348    1618    1619
CQUAD4   3456    1       1348    1349    1617    1618
CQUAD4   3457    1       1349    1350    1616    1617
CQUAD4   3458    1       1350    1186    1187    1616
CQUAD4   3459    1       1174    1624    1634    1170
CQUAD4   3460    1       1624    1620    1629    1634
CQUAD4   3461    1       1620    1619    1625    1629
CQUAD4   3462    1       1619    1618    1623    1625
CQUAD4   3463    1       1618    1617    1621    1623
CQUAD4   3464    1       1617    1616    1622    1621
CQUAD4   3465    1       1616    1187    1188    1622
CQUAD4   3466    1       1170    1634    1637    1180
CQUAD4   3467    1       1634    1629    1633    1637
CQUAD4   3468    1       1629    1625    1630    1633
CQUAD4   3469    1       1625    1623    1626    1630
$ ... 34 like lines cut
CTRIA3   3504    1       1649    1650    1199
CQUAD4   3505    1       1650    1204    1197    1199
CQUAD4   3506    1       1183    1205    1651    1184
CQUAD4   3507    1       1205    1206    1652    1651
CQUAD4   3508    1       1206    1207    1653    1652
CQUAD4   3509    1       1207    1208    1209    1653
CQUAD4   3510    1       1184    1651    1654    1185
CQUAD4   3511    1       1651    1652    1655    1654
CQUAD4   3512    1       1652    1653    1656    1655
CQUAD4   3513    1       1653    1209    1210    1656
CQUAD4   3514    1       1185    1654    1200    1175
CTRIA3   3515    1       1654    1655    1200
CQUAD4   3516    1       1655    1656    1201    1200
CQUAD4   3517    1       1656    1210    1202    1201
CQUAD4   3518    1       1186    1339    1657    1187
CQUAD4   3519    1       1339    1340    1658    1657
CQUAD4   3520    1       1340    1341    1659    1658
CQUAD4   3521    1       1341    1342    1660    1659
CQUAD4   3522    1       1342    1343    1661    1660
CQUAD4   3523    1       1343    1344    1665    1661
CQUAD4   3524    1       1344    1211    1212    1665
CQUAD4   3525    1       1187    1657    1662    1188
CQUAD4   3526    1       1657    1658    1663    1662
CQUAD4   3527    1       1658    1659    1664    1663
CQUAD4   3528    1       1659    1660    1666    1664
CQUAD4   3529    1       1660    1661    1670    1666
CQUAD4   3530    1       1661    1665    1675    1670
CQUAD4   3531    1       1665    1212    1208    1675
CQUAD4   3532    1       1188    1662    1669    1189
CQUAD4   3533    1       1662    1663    1668    1669
CQUAD4   3534    1       1663    1664    1667    1668
CQUAD4   3535    1       1664    1666    1671    1667
$ ... 22 like lines cut
CTRIA3   3558    1       1683    1684    1198
CQUAD4   3559    1       1684    1215    1196    1198
CQUAD4   3560    1       1208    1218    1685    1209
CQUAD4   3561    1       1218    1219    1686    1685
CQUAD4   3562    1       1219    1220    1687    1686
CQUAD4   3563    1       1220    1221    1222    1687
CQUAD4   3564    1       1209    1685    1688    1210
CQUAD4   3565    1       1685    1686    1689    1688
CQUAD4   3566    1       1686    1687    1690    1689
CQUAD4   3567    1       1687    1222    1223    1690
CQUAD4   3568    1       1210    1688    1216    1202
CTRIA3   3569    1       1688    1689    1216
CQUAD4   3570    1       1689    1690    1217    1216
CQUAD4   3571    1       1690    1223    1213    1217
CQUAD4   3572    1       1211    1335    1691    1212
CQUAD4   3573    1       1335    1336    1692    1691
CQUAD4   3574    1       1336    1337    1693    1692
CQUAD4   3575    1       1337    1338    1694    1693
CQUAD4   3576    1       1338    1224    1225    1694
CQUAD4   3577    1       1212    1691    1218    1208
CQUAD4   3578    1       1691    1692    1219    1218
CTRIA3   3579    1       1692    1693    1219
CQUAD4   3580    1       1693    1694    1220    1219
CQUAD4   3581    1       1694    1225    1221    1220
CQUAD4   3582    1       1196    1232    1695    1195
CQUAD4   3583    1       1232    1230    1696    1695
CQUAD4   3584    1       1195    1695    1697    1194
CQUAD4   3585    1       1695    1696    1698    1697
CQUAD4   3586    1       1194    1697    1701    1193
CQUAD4   3587    1       1697    1698    1700    1701
CQUAD4   3588    1       1698    1696    1699    1700
CQUAD4   3589    1       1696    1230    1231    1699
CQUAD4   3590    1       1193    1701    1226    1000
CQUAD4   3591    1       1701    1700    1227    1226
CQUAD4   3592    1       1700    1699    1228    1227
CQUAD4   3593    1       1699    1231    1229    1228
CQUAD4   3594    1       1213    1233    1702    1214
CQUAD4   3595    1       1233    1234    1703    1702
CQUAD4   3596    1       1234    1235    1236    1703
CQUAD4   3597    1       1214    1702    1704    1215
CQUAD4   3598    1       1702    1703    1705    1704
CQUAD4   3599    1       1703    1236    1237    1705
CQUAD4   3600    1       1215    1704    1232    1196
CTRIA3   3601    1       1704    1705    1232
CQUAD4   3602    1       1705    1237    1230    1232
CQUAD4   3603    1       1221    1238    1706    1222
CQUAD4   3604    1       1238    1239    1707    1706
CQUAD4   3605    1       1239    1240    1708    1707
CQUAD4   3606    1       1240    1241    1242    1708
CQUAD4   3607    1       1222    1706    1709    1223
CQUAD4   3608    1       1706    1707    1710    1709
CQUAD4   3609    1       1707    1708    1711    1710
CQUAD4   3610    1       1708    1242    1243    1711
CQUAD4   3611    1       1223    1709    1233    1213
CTRIA3   3612    1       1709    1710    1233
CQUAD4   3613    1       1710    1711    1234    1233
CQUAD4   3614    1       1711    1243    1235    1234
CQUAD4   3615    1       1224    1331    1712    1225
CQUAD4   3616    1       1331    1332    1713    1712
CQUAD4   3617    1       1332    1333    1714    1713
CQUAD4   3618    1       1333    1334    1715    1714
CQUAD4   3619    1       1334    1244    1245    1715
CQUAD4   3620    1       1225    1712    1238    1221
CQUAD4   3621    1       1712    1713    1239    1238
CTRIA3   3622    1       1713    1714    1239
CQUAD4   3623    1       1714    1715    1240    1239
CQUAD4   3624    1       1715    1245    1241    1240
CQUAD4   3625    1       1235    1249    1716    1236
CQUAD4   3626    1       1249    1250    1717    1716
CQUAD4   3627    1       1250    1246    1247    1717
CQUAD4   3628    1       1236    1716    1718    1237
CQUAD4   3629    1       1716    1717    1719    1718
CQUAD4   3630    1       1717    1247    1248    1719
CQUAD4   3631    1       1237    1718    1231    1230
CTRIA3   3632    1       1718    1719    1231
CQUAD4   3633    1       1719    1248    1229    1231
CQUAD4   3634    1       1241    1251    1720    1242
CQUAD4   3635    1       1251    1252    1721    1720
CQUAD4   3636    1       1252    1253    1722    1721
CQUAD4   3637    1       1253    1254    1255    1722
CQUAD4   3638    1       1242    1720    1723    1243
CQUAD4   3639    1       1720    1721    1724    1723
CQUAD4   3640    1       1721    1722    1725    1724
CQUAD4   3641    1       1722    1255    1256    1725
CQUAD4   3642    1       1243    1723    1249    1235
CTRIA3   3643    1       1723    1724    1249
CQUAD4   3644    1       1724    1725    1250    1249
CQUAD4   3645    1       1725    1256    1246    1250
CQUAD4   3646    1       1244    1325    1734    1245
CQUAD4   3647    1       1325    1326    1730    1734
CQUAD4   3648    1       1326    1327    1729    1730
CQUAD4   3649    1       1327    1328    1728    1729
CQUAD4   3650    1       1328    1329    1727    1728
CQUAD4   3651    1       1329    1330    1726    1727
CQUAD4   3652    1       1330    1257    1258    1726
CQUAD4   3653    1       1245    1734    1744    1241
CQUAD4   3654    1       1734    1730    1739    1744
CQUAD4   3655    1       1730    1729    1735    1739
CQUAD4   3656    1       1729    1728    1733    1735
CQUAD4   3657    1       1728    1727    1731    1733
CQUAD4   3658    1       1727    1726    1732    1731
CQUAD4   3659    1       1726    1258    1259    1732
CQUAD4   3660    1       1241    1744    1747    1251
CQUAD4   3661    1       1744    1739    1743    1747
CQUAD4   3662    1       1739    1735    1740    1743
CQUAD4   3663    1       1735    1733    1736    1740
$ ... 34 like lines cut
CTRIA3   3698    1       1759    1760    1264
CQUAD4   3699    1       1760    1269    1265    1264
CQUAD4   3700    1       1254    1272    1761    1255
CQUAD4   3701    1       1272    1273    1762    1761
CQUAD4   3702    1       1273    1274    1763    1762
CQUAD4   3703    1       1274    1275    1276    1763
CQUAD4   3704    1       1255    1761    1764    1256
CQUAD4   3705    1       1761    1762    1765    1764
CQUAD4   3706    1       1762    1763    1766    1765
CQUAD4   3707    1       1763    1276    1277    1766
CQUAD4   3708    1       1256    1764    1270    1246
CTRIA3   3709    1       1764    1765    1270
CQUAD4   3710    1       1765    1766    1271    1270
CQUAD4   3711    1       1766    1277    1267    1271
CQUAD4   3712    1       1257    1319    1767    1258
CQUAD4   3713    1       1319    1320    1768    1767
CQUAD4   3714    1       1320    1321    1769    1768
CQUAD4   3715    1       1321    1322    1770    1769
CQUAD4   3716    1       1322    1323    1771    1770
CQUAD4   3717    1       1323    1324    1775    1771
CQUAD4   3718    1       1324    1278    1279    1775
CQUAD4   3719    1       1258    1767    1772    1259
CQUAD4   3720    1       1767    1768    1773    1772
CQUAD4   3721    1       1768    1769    1774    1773
CQUAD4   3722    1       1769    1770    1776    1774
CQUAD4   3723    1       1770    1771    1780    1776
CQUAD4   3724    1       1771    1775    1785    1780
CQUAD4   3725    1       1775    1279    1275    1785
CQUAD4   3726    1       1259    1772    1779    1260
CQUAD4   3727    1       1772    1773    1778    1779
CQUAD4   3728    1       1773    1774    1777    1778
CQUAD4   3729    1       1774    1776    1781    1777
$ ... 22 like lines cut
CTRIA3   3752    1       1793    1794    1266
CQUAD4   3753    1       1794    1005    1004    1266
CQUAD4   3754    1       1275    1282    1795    1276
CQUAD4   3755    1       1282    1283    1796    1795
CQUAD4   3756    1       1283    1284    1797    1796
CQUAD4   3757    1       1284    1010    1009    1797
CQUAD4   3758    1       1276    1795    1798    1277
CQUAD4   3759    1       1795    1796    1799    1798
CQUAD4   3760    1       1796    1797    1800    1799
CQUAD4   3761    1       1797    1009    1008    1800
CQUAD4   3762    1       1277    1798    1280    1267
CTRIA3   3763    1       1798    1799    1280
CQUAD4   3764    1       1799    1800    1281    1280
CQUAD4   3765    1       1800    1008    1007    1281
CQUAD4   3766    1       1278    1315    1801    1279
CQUAD4   3767    1       1315    1316    1802    1801
CQUAD4   3768    1       1316    1317    1803    1802
CQUAD4   3769    1       1317    1318    1804    1803
CQUAD4   3770    1       1318    1012    1011    1804
CQUAD4   3771    1       1279    1801    1282    1275
CQUAD4   3772    1       1801    1802    1283    1282
CTRIA3   3773    1       1802    1803    1283
CQUAD4   3774    1       1803    1804    1284    1283
CQUAD4   3775    1       1804    1011    1010    1284
$ Elements and Element Properties for region : 1D_Beam_Ext
PBARL    2       1               BAR
         .005    .013
$ Pset: "1D_Beam_Ext" will be imported as: "pbarl.2"
CBAR     2000    2       1102    1285    0.      0.      1.
                         0.      0.      -.0075  0.      0.      -.0075
CBAR     2001    2       1285    1286    0.      0.      1.
                         0.      0.      -.0075  0.      0.      -.0075
CBAR     2002    2       1286    1287    0.      0.      1.
                         0.      0.      -.0075  0.      0.      -.0075
CBAR     2003    2       1287    1288    0.      0.      1.
                         0.      0.      -.0075  0.      0.      -.0075
CBAR     2004    2       1288    1289    0.      0.      1.
                         0.      0.      -.0075  0.      0.      -.0075
CBAR     2005    2       1289    1290    0.      0.      1.
                         0.      0.      -.0075  0.      0.      -.0075
CBAR     2006    2       1290    1115    0.      0.      1.
                         0.      0.      -.0075  0.      0.      -.0075
CBAR     2007    2       1059    1291    0.      0.      1.
                         0.      0.      -.0075  0.      0.      -.0075
CBAR     2008    2       1291    1292    0.      0.      1.
                         0.      0.      -.0075  0.      0.      -.0075
CBAR     2009    2       1292    1293    0.      0.      1.
                         0.      0.      -.0075  0.      0.      -.0075
CBAR     2010    2       1293    1294    0.      0.      1.
                         0.      0.      -.0075  0.      0.      -.0075
CBAR     2011    2       1294    1102    0.      0.      1.
                         0.      0.      -.0075  0.      0.      -.0075
CBAR     2012    2       1047    1295    0.      0.      1.
                         0.      0.      -.0075  0.      0.      -.0075
CBAR     2013    2       1295    1296    0.      0.      1.
                         0.      0.      -.0075  0.      0.      -.0075
CBAR     2014    2       1296    1297    0.      0.      1.
                         0.      0.      -.0075  0.      0.      -.0075
CBAR     2015    2       1297    1298    0.      0.      1.
                         0.      0.      -.0075  0.      0.      -.0075
CBAR     2016    2       1298    1059    0.      0.      1.
                         0.      0.      -.0075  0.      0.      -.0075
CBAR     2017    2       1035    1299    0.      0.      1.
                         0.      0.      -.0075  0.      0.      -.0075
CBAR     2018    2       1299    1300    0.      0.      1.
                         0.      0.      -.0075  0.      0.      -.0075
CBAR     2019    2       1300    1301    0.      0.      1.
                         0.      0.      -.0075  0.      0.      -.0075
$ ... 152 like lines cut
$ Elements and Element Properties for region : 1D_Beam_Int
PBARL    3       1               BAR
         .005    .013
$ Pset: "1D_Beam_Int" will be imported as: "pbarl.3"
CBAR     1000    3       1000    1001    0.      0.      1.
                         0.      0.      -.0075  0.      0.      -.0075
CBAR     1001    3       1001    1002    0.      0.      1.
                         0.      0.      -.0075  0.      0.      -.0075
CBAR     1002    3       1002    1003    0.      0.      1.
                         0.      0.      -.0075  0.      0.      -.0075
CBAR     1003    3       1003    1004    0.      0.      1.
                         0.      0.      -.0075  0.      0.      -.0075
CBAR     1004    3       1004    1005    0.      0.      1.
                         0.      0.      -.0075  0.      0.      -.0075
CBAR     1005    3       1005    1006    0.      0.      1.
                         0.      0.      -.0075  0.      0.      -.0075
CBAR     1006    3       1006    1007    0.      0.      1.
                         0.      0.      -.0075  0.      0.      -.0075
CBAR     1007    3       1007    1008    0.      0.      1.
                         0.      0.      -.0075  0.      0.      -.0075
CBAR     1008    3       1008    1009    0.      0.      1.
                         0.      0.      -.0075  0.      0.      -.0075
CBAR     1009    3       1009    1010    0.      0.      1.
                         0.      0.      -.0075  0.      0.      -.0075
CBAR     1010    3       1010    1011    0.      0.      1.
                         0.      0.      -.0075  0.      0.      -.0075
CBAR     1011    3       1011    1012    0.      0.      1.
                         0.      0.      -.0075  0.      0.      -.0075
CBAR     1012    3       1013    1014    0.      0.      1.
                         0.      0.      -.0075  0.      0.      -.0075
CBAR     1013    3       1014    1015    0.      0.      1.
                         0.      0.      -.0075  0.      0.      -.0075
CBAR     1014    3       1015    1016    0.      0.      1.
                         0.      0.      -.0075  0.      0.      -.0075
CBAR     1015    3       1016    1017    0.      0.      1.
                         0.      0.      -.0075  0.      0.      -.0075
CBAR     1016    3       1017    1018    0.      0.      1.
                         0.      0.      -.0075  0.      0.      -.0075
CBAR     1017    3       1018    1019    0.      0.      1.
                         0.      0.      -.0075  0.      0.      -.0075
CBAR     1018    3       1019    1020    0.      0.      1.
                         0.      0.      -.0075  0.      0.      -.0075
CBAR     1019    3       1020    1021    0.      0.      1.
                         0.      0.      -.0075  0.      0.      -.0075
$ ... 608 like lines cut
$ Elements and Element Properties for region : 0D_Mass_12kg
CONM2    1       1               12.
*                        0.              1.3541666-10
*
$ Elements and Element Properties for region : 1D_CBUSH
PBUSH    4       K       1.+9    1.+9    1.+9    100.    1.+7    1.+7
$ Pset: "1D_CBUSH" will be imported as: "pbush.4"
CBUSH    2       4       1016    12      0.      1.      0.
CBUSH    3       4       1039    13      0.      1.      0.
CBUSH    4       4       1055    14      0.      1.      0.
CBUSH    5       4       1093    15      0.      1.      0.
CBUSH    6       4       1131    16      0.      1.      0.
CBUSH    7       4       1152    17      0.      1.      0.
CBUSH    8       4       1164    18      0.      1.      0.
CBUSH    9       4       1202    19      0.      1.      0.
CBUSH    10      4       1223    20      0.      1.      0.
CBUSH    11      4       1235    21      0.      1.      0.
CBUSH    12      4       1267    22      0.      1.      0.
CBUSH    13      4       1008    11      0.      1.      0.
$ Elements and Element Properties for region : 0D_Mass_43-32kg
CONM2    3776    2               43.32
$ Referenced Material Records
$ Material Record : Al_7075
$ Description of Material : Date: 21-Apr-21           Time: 20:56:42
MAT1*    1               7.0999998+10                    .33
*        2800.           2.2-5           20.
$ Multipoint Constraints of the Entire Model
$ ID conflict : the PATRAN MPC ID was 2
RBE2     3777    1       123     1007    1054    1142    1213
$ ID conflict : the PATRAN MPC ID was 3
RBE2     3778    2       123456  1012    1021    1035    1047    1059
         1102    1115    1140    1153    1173    1186    1211    1224
         1244    1257    1278    1285    1286    1287    1288    1289
         1290    1291    1292    1293    1294    1295    1296    1297
         1298    1299    1300    1301    1302    1303    1304    1305
         1306    1307    1308    1309    1310    1311    1312    1313
         1314    1315    1316    1317    1318    1319    1320    1321
         1322    1323    1324    1325    1326    1327    1328    1329
         1330    1331    1332    1333    1334    1335    1336    1337
         1338    1339    1340    1341    1342    1343    1344    1345
         1346    1347    1348    1349    1350    1351    1352    1353
         1354    1355    1356    1357    1358    1359    1360    1361
         1362    1363    1364
$ Nodes of the Entire Model
GRID*    1                               0.              0.
*       .079999998211861
GRID*    2                               0.              0.
*       .379999995231628
GRID*    11                              .15333366394043 0.
*        -.02
GRID*    12                              .13416700065136.055573999881744
*        -.02
GRID*    13                             .055573645979166.134167149662971
*        -.02
GRID*    14                              0.              .15333366394043
*        -.02
GRID*    15                             -.05557400733232 .13416700065136
*        -.02
GRID*    16                             -.13416714966297.055573638528585
*        -.02
GRID*    17                             -.15333366394043 -6.7024275019-9
*        -.02
GRID*    18                             -.13416700065136-.05557401105762
*        -.02
GRID*    19                              -.0555736348033-.13416714966297
*        -.02
GRID*    20                             1.340485500378-8-.15333366394043
*        -.02
GRID*    21                             .055573999881744-.13416700065136
*        -.02
GRID*    22                             .134167149662971-.05557364597917
*        -.02
GRID     1000            0.      0.      0.
GRID*    1001                           .019167499616742 0.
*        0.
GRID*    1002                           .038334999233484 0.
*        0.
GRID*    1003                           .057502500712872 0.
*        0.
GRID*    1004                           .076669998466969 0.
*        0.
GRID*    1005                           .095835663378239 0.
*        0.
GRID*    1006                           .115001335740089 0.
*        0.
GRID*    1007                            .13416700065136 0.
*        0.
GRID*    1008                            .15333366394043 0.
*        0.
GRID*    1009                           .172500342130661 0.
*        0.
GRID*    1010                           .191667005419731 0.
*        0.
GRID*    1011                           .210833504796028 0.
*        0.
GRID*    1012                           .230000004172325 0.
*        0.
GRID*    1013                           .076669998466969.031755998730659
*        0.
GRID*    1014                           .095835663378239.039695333689451
*        0.
GRID*    1015                           .115001335740089.047634664922953
*        0.
GRID*    1016                            .13416700065136.055573999881744
*        0.
GRID*    1017                            .15333366394043 .0635130032897
*        0.
GRID*    1018                           .172500342130661.071451999247074
*        0.
GRID*    1019                           .191667005419731.079391002655029
*        0.
GRID*    1020                           .210833504796028.087329998612404
*        0.
$ ... 1568 like lines cut
$ Loads for Load Case : Modos
SPCADD   2       1
$ Displacement Constraints of Load Set : BC_123456
SPC1     1       123456  11      THRU    22
$ Referenced Coordinate Frames
ENDDATA f2b40067
