$ MSC.Nastran input file created on April     25, 2021 at 10:42:15 by
$ Patran 2020  (Student Edition)
$ Direct Text Input for Nastran System Cell Section
$ Direct Text Input for File Management Section
$ Direct Text Input for Executive Control
$ Linear Static Analysis, Database
SOL 101
CEND
$ Direct Text Input for Global Case Control Data
ECHO = NONE
SUBCASE 1
   SUBTITLE=Aceleracion_Y_50g
   SPC = 2
   LOAD = 2
   DISPLACEMENT(SORT1,REAL)=ALL
   SPCFORCES(SORT1,REAL)=ALL
   STRAIN(SORT1,REAL,VONMISES,STRCUR,BILIN)=ALL
   STRESS(SORT1,REAL,VONMISES,BILIN)=ALL
   FORCE(SORT1,REAL,BILIN)=ALL
$ Direct Text Input for this Subcase
BEGIN BULK
$ Direct Text Input for Bulk Data
PARAM    POST    0
PARAM   PRTMAXIM YES
$ Elements and Element Properties for region : 2D_Shell
PSHELL   1       1       .002    1               1
$ Pset: "2D_Shell" will be imported as: "pshell.1"
CQUAD4   2000    1       1008    1125    1237    1007
CQUAD4   2001    1       1125    1126    1238    1237
CQUAD4   2002    1       1126    1017    1240    1238
CQUAD4   2003    1       1007    1237    1239    1006
CQUAD4   2004    1       1237    1238    1241    1239
CQUAD4   2005    1       1238    1240    1243    1241
CQUAD4   2006    1       1006    1239    1242    1005
CQUAD4   2007    1       1239    1241    1244    1242
CQUAD4   2008    1       1241    1243    1247    1244
CQUAD4   2009    1       1005    1242    1246    1004
CQUAD4   2010    1       1242    1244    1248    1246
CQUAD4   2011    1       1244    1247    1250    1248
CQUAD4   2012    1       1004    1246    1251    1003
CQUAD4   2013    1       1246    1248    1252    1251
CQUAD4   2014    1       1248    1250    1254    1252
CQUAD4   2015    1       1003    1251    1257    1002
CQUAD4   2016    1       1251    1252    1259    1257
CQUAD4   2017    1       1252    1254    1258    1259
CQUAD4   2018    1       1254    1250    1255    1258
CQUAD4   2019    1       1250    1247    1253    1255
$ ... 764 like lines cut
$ Elements and Element Properties for region : 1D_Beam_Ext
PBARL    2       1               BAR
         .005    .013
$ Pset: "1D_Beam_Ext" will be imported as: "pbarl.2"
CBAR     1200    2       1157    1158    0.      0.      1.
                         0.      0.      -.0075  0.      0.      -.0075
CBAR     1201    2       1158    1159    0.      0.      1.
                         0.      0.      -.0075  0.      0.      -.0075
CBAR     1202    2       1159    1160    0.      0.      1.
                         0.      0.      -.0075  0.      0.      -.0075
CBAR     1203    2       1160    1161    0.      0.      1.
                         0.      0.      -.0075  0.      0.      -.0075
CBAR     1204    2       1161    1162    0.      0.      1.
                         0.      0.      -.0075  0.      0.      -.0075
CBAR     1205    2       1162    1163    0.      0.      1.
                         0.      0.      -.0075  0.      0.      -.0075
CBAR     1206    2       1163    1164    0.      0.      1.
                         0.      0.      -.0075  0.      0.      -.0075
CBAR     1207    2       1164    1051    0.      0.      1.
                         0.      0.      -.0075  0.      0.      -.0075
CBAR     1208    2       1145    1165    0.      0.      1.
                         0.      0.      -.0075  0.      0.      -.0075
CBAR     1209    2       1165    1166    0.      0.      1.
                         0.      0.      -.0075  0.      0.      -.0075
CBAR     1210    2       1166    1157    0.      0.      1.
                         0.      0.      -.0075  0.      0.      -.0075
CBAR     1211    2       1167    1168    0.      0.      1.
                         0.      0.      -.0075  0.      0.      -.0075
CBAR     1212    2       1168    1169    0.      0.      1.
                         0.      0.      -.0075  0.      0.      -.0075
CBAR     1213    2       1169    1145    0.      0.      1.
                         0.      0.      -.0075  0.      0.      -.0075
CBAR     1214    2       1039    1170    0.      0.      1.
                         0.      0.      -.0075  0.      0.      -.0075
CBAR     1215    2       1170    1171    0.      0.      1.
                         0.      0.      -.0075  0.      0.      -.0075
CBAR     1216    2       1171    1172    0.      0.      1.
                         0.      0.      -.0075  0.      0.      -.0075
CBAR     1217    2       1172    1173    0.      0.      1.
                         0.      0.      -.0075  0.      0.      -.0075
CBAR     1218    2       1173    1174    0.      0.      1.
                         0.      0.      -.0075  0.      0.      -.0075
CBAR     1219    2       1174    1175    0.      0.      1.
                         0.      0.      -.0075  0.      0.      -.0075
$ ... 136 like lines cut
$ Elements and Element Properties for region : 1D_Beam_Int
PBARL    3       1               BAR
         .005    .013
$ Pset: "1D_Beam_Int" will be imported as: "pbarl.3"
CBAR     1000    3       1000    1001    0.      0.      1.
                         0.      0.      -.0075  0.      0.      -.0075
CBAR     1001    3       1001    1002    0.      0.      1.
                         0.      0.      -.0075  0.      0.      -.0075
CBAR     1002    3       1002    1003    0.      0.      1.
                         0.      0.      -.0075  0.      0.      -.0075
CBAR     1003    3       1003    1004    0.      0.      1.
                         0.      0.      -.0075  0.      0.      -.0075
CBAR     1004    3       1004    1005    0.      0.      1.
                         0.      0.      -.0075  0.      0.      -.0075
CBAR     1005    3       1005    1006    0.      0.      1.
                         0.      0.      -.0075  0.      0.      -.0075
CBAR     1006    3       1006    1007    0.      0.      1.
                         0.      0.      -.0075  0.      0.      -.0075
CBAR     1007    3       1007    1008    0.      0.      1.
                         0.      0.      -.0075  0.      0.      -.0075
CBAR     1008    3       1009    1010    0.      0.      1.
                         0.      0.      -.0075  0.      0.      -.0075
CBAR     1009    3       1010    1011    0.      0.      1.
                         0.      0.      -.0075  0.      0.      -.0075
CBAR     1010    3       1011    1012    0.      0.      1.
                         0.      0.      -.0075  0.      0.      -.0075
CBAR     1011    3       1012    1013    0.      0.      1.
                         0.      0.      -.0075  0.      0.      -.0075
CBAR     1012    3       1013    1014    0.      0.      1.
                         0.      0.      -.0075  0.      0.      -.0075
CBAR     1013    3       1014    1015    0.      0.      1.
                         0.      0.      -.0075  0.      0.      -.0075
CBAR     1014    3       1015    1016    0.      0.      1.
                         0.      0.      -.0075  0.      0.      -.0075
CBAR     1015    3       1016    1000    0.      0.      1.
                         0.      0.      -.0075  0.      0.      -.0075
CBAR     1016    3       1017    1018    0.      0.      1.
                         0.      0.      -.0075  0.      0.      -.0075
CBAR     1017    3       1018    1019    0.      0.      1.
                         0.      0.      -.0075  0.      0.      -.0075
CBAR     1018    3       1019    1020    0.      0.      1.
                         0.      0.      -.0075  0.      0.      -.0075
CBAR     1019    3       1020    1021    0.      0.      1.
                         0.      0.      -.0075  0.      0.      -.0075
$ ... 288 like lines cut
$ Elements and Element Properties for region : 0D_Mass_12kg
CONM2    1       1               12.
$ Referenced Material Records
$ Material Record : Al_7075
$ Description of Material : Date: 23-Apr-21           Time: 12:02:47
MAT1*    1               7.0999998+10                    .33
*        2800.           2.2-5           20.
$ Multipoint Constraints of the Entire Model
$ ID conflict : the PATRAN MPC ID was 1
RBE2*    2784            1               123             1008
*        1009            1070            1101           2.200000017183-5
$ Nodes of the Entire Model
GRID*    1                               0.              0.
*       .079999998211861
GRID     1000            0.      0.      0.
GRID*    1001                           .019166624173522 0.
*        0.
GRID*    1002                           .038333248347044 0.
*        0.
GRID*    1003                           .057499870657921 0.
*        0.
GRID*    1004                           .076666496694088 0.
*        0.
GRID*    1005                           .095833122730255 0.
*        0.
GRID*    1006                           .114999733865261 0.
*        0.
GRID*    1007                           .134166374802589 0.
*        0.
GRID*    1008                           .153332993388176 0.
*        0.
GRID*    1009                            -6.702398192-9 .153332993388176
*        0.
GRID*    1010                            -5.8645985845-9.134166374802589
*        0.
GRID*    1011                            -5.026798533-9 .114999741315842
*        0.
GRID*    1012                            -4.1889989255-9.095833122730255
*        0.
GRID*    1013                            -3.351199096-9 .076666496694088
*        0.
GRID*    1014                            -2.5133992665-9.057499870657921
*        0.
GRID*    1015                            -1.6755998811-9.038333255797625
*        0.
GRID*    1016                            -8.37799774-10 .019166624173522
*        0.
GRID*    1017                           .153332993388176 .0635130032897
*        0.
GRID*    1018                           .138362929224968.078482933342457
*        0.
GRID*    1019                            .12339286506176.093452870845795
*        0.
GRID*    1020                           .108422800898552.108422800898552
*        0.
$ ... 1616 like lines cut
$ Loads for Load Case : Aceleracion_Y_50g
SPCADD   2       1
LOAD     2       1.      1.      1       1.      3
$ Displacement Constraints of Load Set : BC_123
SPC1     1       123     1039    1051    1082    1113    1144    1145
         1152
SPC1     1       123     1156    THRU    1236
$ Gravity Loading of Load Set : Aceleracion_X_50g
GRAV*    3               0               490.50003       -1.
*        0.              0.
$ Gravity Loading of Load Set : Aceleracion_Y_50g
GRAV*    1               0               490.50003       0.
*        -1.             0.
$ Referenced Coordinate Frames
ENDDATA e3ca09c3
