$ MSC.Nastran input file created on June      04, 2021 at 02:32:01 by
$ Patran 2020  (Student Edition)
$ Direct Text Input for Nastran System Cell Section
$ Direct Text Input for File Management Section
$ Direct Text Input for Executive Control
$ Normal Modes Analysis, Database
SOL 103
CEND
$ Direct Text Input for Global Case Control Data
ECHO = NONE
$ Using Nastran default values for RESVEC
SUBCASE 1
   SUBTITLE=LoadCase
   METHOD = 1
   SPC = 2
   VECTOR(SORT1,REAL)=ALL
   SPCFORCES(SORT1,REAL)=ALL
$ Direct Text Input for this Subcase
BEGIN BULK
$ Direct Text Input for Bulk Data
PARAM    POST    0
PARAM   PRTMAXIM YES
EIGRL    1                       10      0                       MASS
$ Elements and Element Properties for region : 2D_Shell
PSHELL   1       1       .002    1               1
$ Pset: "2D_Shell" will be imported as: "pshell.1"
CQUAD4   2000    1       1008    1125    1237    1007
CQUAD4   2001    1       1125    1126    1238    1237
CQUAD4   2002    1       1126    1017    1240    1238
CQUAD4   2003    1       1007    1237    1239    1006
CQUAD4   2004    1       1237    1238    1241    1239
CQUAD4   2005    1       1238    1240    1243    1241
CQUAD4   2006    1       1006    1239    1242    1005
CQUAD4   2007    1       1239    1241    1244    1242
CQUAD4   2008    1       1241    1243    1247    1244
CQUAD4   2009    1       1005    1242    1246    1004
CQUAD4   2010    1       1242    1244    1248    1246
CQUAD4   2011    1       1244    1247    1250    1248
CQUAD4   2012    1       1004    1246    1251    1003
CQUAD4   2013    1       1246    1248    1252    1251
CQUAD4   2014    1       1248    1250    1254    1252
CQUAD4   2015    1       1003    1251    1257    1002
CQUAD4   2016    1       1251    1252    1259    1257
CQUAD4   2017    1       1252    1254    1258    1259
CQUAD4   2018    1       1254    1250    1255    1258
CQUAD4   2019    1       1250    1247    1253    1255
$ ... 2332 like lines cut
$ Elements and Element Properties for region : 1D_Beam_Ext
PBARL    2       1               BAR
         .002    .018
$ Pset: "1D_Beam_Ext" will be imported as: "pbarl.2"
CBAR     1200    2       1157    1158    0.      0.      1.
                         0.      0.      -.01    0.      0.      -.01
CBAR     1201    2       1158    1159    0.      0.      1.
                         0.      0.      -.01    0.      0.      -.01
CBAR     1202    2       1159    1160    0.      0.      1.
                         0.      0.      -.01    0.      0.      -.01
CBAR     1203    2       1160    1161    0.      0.      1.
                         0.      0.      -.01    0.      0.      -.01
CBAR     1204    2       1161    1162    0.      0.      1.
                         0.      0.      -.01    0.      0.      -.01
CBAR     1205    2       1162    1163    0.      0.      1.
                         0.      0.      -.01    0.      0.      -.01
CBAR     1206    2       1163    1164    0.      0.      1.
                         0.      0.      -.01    0.      0.      -.01
CBAR     1207    2       1164    1051    0.      0.      1.
                         0.      0.      -.01    0.      0.      -.01
CBAR     1208    2       1145    1165    0.      0.      1.
                         0.      0.      -.01    0.      0.      -.01
CBAR     1209    2       1165    1166    0.      0.      1.
                         0.      0.      -.01    0.      0.      -.01
CBAR     1210    2       1166    1157    0.      0.      1.
                         0.      0.      -.01    0.      0.      -.01
CBAR     1211    2       1167    1168    0.      0.      1.
                         0.      0.      -.01    0.      0.      -.01
CBAR     1212    2       1168    1169    0.      0.      1.
                         0.      0.      -.01    0.      0.      -.01
CBAR     1213    2       1169    1145    0.      0.      1.
                         0.      0.      -.01    0.      0.      -.01
CBAR     1214    2       1039    1170    0.      0.      1.
                         0.      0.      -.01    0.      0.      -.01
CBAR     1215    2       1170    1171    0.      0.      1.
                         0.      0.      -.01    0.      0.      -.01
CBAR     1216    2       1171    1172    0.      0.      1.
                         0.      0.      -.01    0.      0.      -.01
CBAR     1217    2       1172    1173    0.      0.      1.
                         0.      0.      -.01    0.      0.      -.01
CBAR     1218    2       1173    1174    0.      0.      1.
                         0.      0.      -.01    0.      0.      -.01
CBAR     1219    2       1174    1175    0.      0.      1.
                         0.      0.      -.01    0.      0.      -.01
$ ... 488 like lines cut
$ Elements and Element Properties for region : 1D_Beam_Int
PBARL    3       1               I
         .018    .012    .012    .002    .002    .002
$ Pset: "1D_Beam_Int" will be imported as: "pbarl.3"
CBAR     1000    3       1000    1001    0.      0.      1.
                         0.      0.      -.01    0.      0.      -.01
CBAR     1001    3       1001    1002    0.      0.      1.
                         0.      0.      -.01    0.      0.      -.01
CBAR     1002    3       1002    1003    0.      0.      1.
                         0.      0.      -.01    0.      0.      -.01
CBAR     1003    3       1003    1004    0.      0.      1.
                         0.      0.      -.01    0.      0.      -.01
CBAR     1004    3       1004    1005    0.      0.      1.
                         0.      0.      -.01    0.      0.      -.01
CBAR     1005    3       1005    1006    0.      0.      1.
                         0.      0.      -.01    0.      0.      -.01
CBAR     1006    3       1006    1007    0.      0.      1.
                         0.      0.      -.01    0.      0.      -.01
CBAR     1007    3       1007    1008    0.      0.      1.
                         0.      0.      -.01    0.      0.      -.01
CBAR     1008    3       1009    1010    0.      0.      1.
                         0.      0.      -.01    0.      0.      -.01
CBAR     1009    3       1010    1011    0.      0.      1.
                         0.      0.      -.01    0.      0.      -.01
CBAR     1010    3       1011    1012    0.      0.      1.
                         0.      0.      -.01    0.      0.      -.01
CBAR     1011    3       1012    1013    0.      0.      1.
                         0.      0.      -.01    0.      0.      -.01
CBAR     1012    3       1013    1014    0.      0.      1.
                         0.      0.      -.01    0.      0.      -.01
CBAR     1013    3       1014    1015    0.      0.      1.
                         0.      0.      -.01    0.      0.      -.01
CBAR     1014    3       1015    1016    0.      0.      1.
                         0.      0.      -.01    0.      0.      -.01
CBAR     1015    3       1016    1000    0.      0.      1.
                         0.      0.      -.01    0.      0.      -.01
CBAR     1016    3       1017    1018    0.      0.      1.
                         0.      0.      -.01    0.      0.      -.01
CBAR     1017    3       1018    1019    0.      0.      1.
                         0.      0.      -.01    0.      0.      -.01
CBAR     1018    3       1019    1020    0.      0.      1.
                         0.      0.      -.01    0.      0.      -.01
CBAR     1019    3       1020    1021    0.      0.      1.
                         0.      0.      -.01    0.      0.      -.01
$ ... 944 like lines cut
$ Elements and Element Properties for region : 0D_Mass_12kg
CONM2    1       1               12.
CONM2    2784    1829            12.
CONM2    5567    3657            12.
$ Elements and Element Properties for region : SM_002_2D_Shell
PSHELL   4       1       .003    1               1
$ Pset: "SM_002_2D_Shell" will be imported as: "pshell.4"
CQUAD4   4783    4       2836    2953    3065    2835
CQUAD4   4784    4       2953    2954    3066    3065
CQUAD4   4785    4       2954    2845    3068    3066
CQUAD4   4786    4       2835    3065    3067    2834
CQUAD4   4787    4       3065    3066    3069    3067
CQUAD4   4788    4       3066    3068    3071    3069
CQUAD4   4789    4       2834    3067    3070    2833
CQUAD4   4790    4       3067    3069    3072    3070
CQUAD4   4791    4       3069    3071    3075    3072
CQUAD4   4792    4       2833    3070    3074    2832
CQUAD4   4793    4       3070    3072    3076    3074
CQUAD4   4794    4       3072    3075    3078    3076
CQUAD4   4795    4       2832    3074    3079    2831
CQUAD4   4796    4       3074    3076    3080    3079
CQUAD4   4797    4       3076    3078    3082    3080
CQUAD4   4798    4       2831    3079    3085    2830
CQUAD4   4799    4       3079    3080    3087    3085
CQUAD4   4800    4       3080    3082    3086    3087
CQUAD4   4801    4       3082    3078    3083    3086
CQUAD4   4802    4       3078    3075    3081    3083
$ ... 764 like lines cut
$ Elements and Element Properties for region : SM_002_1D_Beam_Ext
PBARL    5       1               BAR
         .002    .048
$ Pset: "SM_002_1D_Beam_Ext" will be imported as: "pbarl.5"
CBAR     3983    5       2985    2986    0.      0.      1.
                         0.      0.      -.0255  0.      0.      -.0255
CBAR     3984    5       2986    2987    0.      0.      1.
                         0.      0.      -.0255  0.      0.      -.0255
CBAR     3985    5       2987    2988    0.      0.      1.
                         0.      0.      -.0255  0.      0.      -.0255
CBAR     3986    5       2988    2989    0.      0.      1.
                         0.      0.      -.0255  0.      0.      -.0255
CBAR     3987    5       2989    2990    0.      0.      1.
                         0.      0.      -.0255  0.      0.      -.0255
CBAR     3988    5       2990    2991    0.      0.      1.
                         0.      0.      -.0255  0.      0.      -.0255
CBAR     3989    5       2991    2992    0.      0.      1.
                         0.      0.      -.0255  0.      0.      -.0255
CBAR     3990    5       2992    2879    0.      0.      1.
                         0.      0.      -.0255  0.      0.      -.0255
CBAR     3991    5       2973    2993    0.      0.      1.
                         0.      0.      -.0255  0.      0.      -.0255
CBAR     3992    5       2993    2994    0.      0.      1.
                         0.      0.      -.0255  0.      0.      -.0255
CBAR     3993    5       2994    2985    0.      0.      1.
                         0.      0.      -.0255  0.      0.      -.0255
CBAR     3994    5       2995    2996    0.      0.      1.
                         0.      0.      -.0255  0.      0.      -.0255
CBAR     3995    5       2996    2997    0.      0.      1.
                         0.      0.      -.0255  0.      0.      -.0255
CBAR     3996    5       2997    2973    0.      0.      1.
                         0.      0.      -.0255  0.      0.      -.0255
CBAR     3997    5       2867    2998    0.      0.      1.
                         0.      0.      -.0255  0.      0.      -.0255
CBAR     3998    5       2998    2999    0.      0.      1.
                         0.      0.      -.0255  0.      0.      -.0255
CBAR     3999    5       2999    3000    0.      0.      1.
                         0.      0.      -.0255  0.      0.      -.0255
CBAR     4000    5       3000    3001    0.      0.      1.
                         0.      0.      -.0255  0.      0.      -.0255
CBAR     4001    5       3001    3002    0.      0.      1.
                         0.      0.      -.0255  0.      0.      -.0255
CBAR     4002    5       3002    3003    0.      0.      1.
                         0.      0.      -.0255  0.      0.      -.0255
$ ... 136 like lines cut
$ Elements and Element Properties for region : SM_002_1D_Beam_Int
PBARL    6       1               I
         .048    .006    .006    .004    .004    .004
$ Pset: "SM_002_1D_Beam_Int" will be imported as: "pbarl.6"
CBAR     3783    6       2828    2829    0.      0.      1.
                         0.      0.      -.0255  0.      0.      -.0255
CBAR     3784    6       2829    2830    0.      0.      1.
                         0.      0.      -.0255  0.      0.      -.0255
CBAR     3785    6       2830    2831    0.      0.      1.
                         0.      0.      -.0255  0.      0.      -.0255
CBAR     3786    6       2831    2832    0.      0.      1.
                         0.      0.      -.0255  0.      0.      -.0255
CBAR     3787    6       2832    2833    0.      0.      1.
                         0.      0.      -.0255  0.      0.      -.0255
CBAR     3788    6       2833    2834    0.      0.      1.
                         0.      0.      -.0255  0.      0.      -.0255
CBAR     3789    6       2834    2835    0.      0.      1.
                         0.      0.      -.0255  0.      0.      -.0255
CBAR     3790    6       2835    2836    0.      0.      1.
                         0.      0.      -.0255  0.      0.      -.0255
CBAR     3791    6       2837    2838    0.      0.      1.
                         0.      0.      -.0255  0.      0.      -.0255
CBAR     3792    6       2838    2839    0.      0.      1.
                         0.      0.      -.0255  0.      0.      -.0255
CBAR     3793    6       2839    2840    0.      0.      1.
                         0.      0.      -.0255  0.      0.      -.0255
CBAR     3794    6       2840    2841    0.      0.      1.
                         0.      0.      -.0255  0.      0.      -.0255
CBAR     3795    6       2841    2842    0.      0.      1.
                         0.      0.      -.0255  0.      0.      -.0255
CBAR     3796    6       2842    2843    0.      0.      1.
                         0.      0.      -.0255  0.      0.      -.0255
CBAR     3797    6       2843    2844    0.      0.      1.
                         0.      0.      -.0255  0.      0.      -.0255
CBAR     3798    6       2844    2828    0.      0.      1.
                         0.      0.      -.0255  0.      0.      -.0255
CBAR     3799    6       2845    2846    0.      0.      1.
                         0.      0.      -.0255  0.      0.      -.0255
CBAR     3800    6       2846    2847    0.      0.      1.
                         0.      0.      -.0255  0.      0.      -.0255
CBAR     3801    6       2847    2848    0.      0.      1.
                         0.      0.      -.0255  0.      0.      -.0255
CBAR     3802    6       2848    2849    0.      0.      1.
                         0.      0.      -.0255  0.      0.      -.0255
$ ... 288 like lines cut
$ Elements and Element Properties for region : 1D_CBUSH
PBUSH    7       K       1.+9    1.+9    1.+9    100.    1.+7    1.+7
$ Pset: "1D_CBUSH" will be imported as: "pbush.7"
CBUSH    2785    7       2845    1839    0.      1.      0.
CBUSH    2786    7       2851    1840    0.      1.      0.
CBUSH    2787    7       2976    1848    0.      1.      0.
CBUSH    2788    7       2868    1841    0.      1.      0.
CBUSH    2789    7       2890    1842    0.      1.      0.
CBUSH    2790    7       2969    1847    0.      1.      0.
CBUSH    2791    7       2899    1843    0.      1.      0.
CBUSH    2792    7       2921    1844    0.      1.      0.
CBUSH    2793    7       2981    1850    0.      1.      0.
CBUSH    2794    7       2930    1845    0.      1.      0.
CBUSH    2795    7       2952    1846    0.      1.      0.
CBUSH    2796    7       2977    1849    0.      1.      0.
$ Elements and Element Properties for region : 1D_Al7075_Lbar_xn_yn
PBEAML   8       1               L
         .03     .03     .0052   .0052
$ Pset: "1D_Al7075_Lbar_xn_yn" will be imported as: "pbeaml.8"
CBEAM    10000   8       2910    10001   1.      0.      0.
CBEAM    10001   8       10001   10002   1.      0.      0.
CBEAM    10002   8       10002   10003   1.      0.      0.
CBEAM    10003   8       10003   10004   1.      0.      0.
CBEAM    10004   8       10004   1082    1.      0.      0.
CBEAM    10005   8       1082    10007   1.      0.      0.
CBEAM    10006   8       10007   10008   1.      0.      0.
CBEAM    10007   8       10008   10009   1.      0.      0.
CBEAM    10008   8       10009   10010   1.      0.      0.
CBEAM    10009   8       10010   3740    1.      0.      0.
CBEAM    10010   8       3740    10013   1.      0.      0.
CBEAM    10011   8       10013   10014   1.      0.      0.
CBEAM    10012   8       10014   10015   1.      0.      0.
CBEAM    10013   8       10015   10016   1.      0.      0.
CBEAM    10014   8       10016   4570    1.      0.      0.
$ Elements and Element Properties for region : 1D_Al7075_Lbar_xn_yp
PBEAML   9       1               L
         .03     .03     .0052   .0052
$ Pset: "1D_Al7075_Lbar_xn_yp" will be imported as: "pbeaml.9"
CBEAM    10015   9       2879    10019   0.      -1.     0.
CBEAM    10016   9       10019   10020   0.      -1.     0.
CBEAM    10017   9       10020   10021   0.      -1.     0.
CBEAM    10018   9       10021   10022   0.      -1.     0.
CBEAM    10019   9       10022   1051    0.      -1.     0.
CBEAM    10020   9       1051    10025   0.      -1.     0.
CBEAM    10021   9       10025   10026   0.      -1.     0.
CBEAM    10022   9       10026   10027   0.      -1.     0.
CBEAM    10023   9       10027   10028   0.      -1.     0.
CBEAM    10024   9       10028   3709    0.      -1.     0.
CBEAM    10025   9       3709    10031   0.      -1.     0.
CBEAM    10026   9       10031   10032   0.      -1.     0.
CBEAM    10027   9       10032   10033   0.      -1.     0.
CBEAM    10028   9       10033   10034   0.      -1.     0.
CBEAM    10029   9       10034   4539    0.      -1.     0.
$ Elements and Element Properties for region : 1D_Al7075_Lbar_xp_yn
PBEAML   10      1               L
         .03     .03     .0052   .0052
$ Pset: "1D_Al7075_Lbar_xp_yn" will be imported as: "pbeaml.10"
CBEAM    10030   10      2941    10037   0.      1.      0.
CBEAM    10031   10      10037   10038   0.      1.      0.
CBEAM    10032   10      10038   10039   0.      1.      0.
CBEAM    10033   10      10039   10040   0.      1.      0.
CBEAM    10034   10      10040   1113    0.      1.      0.
CBEAM    10035   10      1113    10043   0.      1.      0.
CBEAM    10036   10      10043   10044   0.      1.      0.
CBEAM    10037   10      10044   10045   0.      1.      0.
CBEAM    10038   10      10045   10046   0.      1.      0.
CBEAM    10039   10      10046   3771    0.      1.      0.
CBEAM    10040   10      3771    10049   0.      1.      0.
CBEAM    10041   10      10049   10050   0.      1.      0.
CBEAM    10042   10      10050   10051   0.      1.      0.
CBEAM    10043   10      10051   10052   0.      1.      0.
CBEAM    10044   10      10052   4601    0.      1.      0.
$ Elements and Element Properties for region : 1D_Al7075_Lbar_xp_yp
PBEAML   11      1               L
         .03     .03     .0052   .0052
$ Pset: "1D_Al7075_Lbar_xp_yp" will be imported as: "pbeaml.11"
CBEAM    10045   11      2867    10055   -1.     0.      0.
CBEAM    10046   11      10055   10056   -1.     0.      0.
CBEAM    10047   11      10056   10057   -1.     0.      0.
CBEAM    10048   11      10057   10058   -1.     0.      0.
CBEAM    10049   11      10058   1039    -1.     0.      0.
CBEAM    10050   11      1039    10061   -1.     0.      0.
CBEAM    10051   11      10061   10062   -1.     0.      0.
CBEAM    10052   11      10062   10063   -1.     0.      0.
CBEAM    10053   11      10063   10064   -1.     0.      0.
CBEAM    10054   11      10064   3697    -1.     0.      0.
CBEAM    10055   11      3697    10067   -1.     0.      0.
CBEAM    10056   11      10067   10068   -1.     0.      0.
CBEAM    10057   11      10068   10069   -1.     0.      0.
CBEAM    10058   11      10069   10070   -1.     0.      0.
CBEAM    10059   11      10070   4527    -1.     0.      0.
$ Elements and Element Properties for region : 2D_Al7075_Panel_1p5mm
PSHELL   12      1       .0015   1               1               4.
$ Pset: "2D_Al7075_Panel_1p5mm" will be imported as: "pshell.12"
CQUAD4   11000   12      2910    10001   11007   3052
CQUAD4   11001   12      10001   10002   11008   11007
CQUAD4   11002   12      10002   10003   11009   11008
CQUAD4   11003   12      10003   10004   11010   11009
CQUAD4   11004   12      10004   1082    1224    11010
CQUAD4   11005   12      3052    11007   11013   3051
CQUAD4   11006   12      11007   11008   11014   11013
CQUAD4   11007   12      11008   11009   11015   11014
CQUAD4   11008   12      11009   11010   11016   11015
CQUAD4   11009   12      11010   1224    1223    11016
CQUAD4   11010   12      3051    11013   11019   3050
CQUAD4   11011   12      11013   11014   11020   11019
CQUAD4   11012   12      11014   11015   11021   11020
CQUAD4   11013   12      11015   11016   11022   11021
CQUAD4   11014   12      11016   1223    1222    11022
CQUAD4   11015   12      3050    11019   11025   3049
CQUAD4   11016   12      11019   11020   11026   11025
CQUAD4   11017   12      11020   11021   11027   11026
CQUAD4   11018   12      11021   11022   11028   11027
CQUAD4   11019   12      11022   1222    1221    11028
$ ... 1300 like lines cut
$ Referenced Material Records
$ Material Record : Al_7075
$ Description of Material : Date: 23-Apr-21           Time: 12:02:47
MAT1*    1               7.0999998+10                    .33
*        2800.           2.2-5           20.
$ Multipoint Constraints of the Entire Model
$ ID conflict : the PATRAN MPC ID was 1
RBE2*    12320           1               123             1008
*        1009            1070            1101           2.200000017183-5
RBE2*    2               1829            123456          2836
*        2837            2898            2929           2.200000017183-5
RBE2*    3               3657            123             3666
*        3667            3728            3759           2.200000017183-5
$ Nodes of the Entire Model
GRID*    1                               0.              0.
*       .279999998211861
GRID     1000            0.      0.      .2
GRID*    1001                           .019166624173522 0.
*        .2
GRID*    1002                           .038333248347044 0.
*        .2
GRID*    1003                           .057499870657921 0.
*        .2
GRID*    1004                           .076666496694088 0.
*        .2
GRID*    1005                           .095833122730255 0.
*        .2
GRID*    1006                           .114999733865261 0.
*        .2
GRID*    1007                           .134166374802589 0.
*        .2
GRID*    1008                           .153332993388176 0.
*        .2
GRID*    1009                            -6.702398192-9 .153332993388176
*        .2
GRID*    1010                            -5.8645985845-9.134166374802589
*        .2
GRID*    1011                            -5.026798533-9 .114999741315842
*        .2
GRID*    1012                            -4.1889989255-9.095833122730255
*        .2
GRID*    1013                            -3.351199096-9 .076666496694088
*        .2
GRID*    1014                            -2.5133992665-9.057499870657921
*        .2
GRID*    1015                            -1.6755998811-9.038333255797625
*        .2
GRID*    1016                            -8.37799774-10 .019166624173522
*        .2
GRID*    1017                           .153332993388176 .0635130032897
*        .2
GRID*    1018                           .138362929224968.078482933342457
*        .2
GRID*    1019                            .12339286506176.093452870845795
*        .2
GRID*    1020                           .108422800898552.108422800898552
*        .2
$ ... 1642 like lines cut
GRID     2828            0.      0.      0.
GRID*    2829                           .019166624173522 0.
*        0.
GRID*    2830                           .038333248347044 0.
*        0.
GRID*    2831                           .057499870657921 0.
*        0.
GRID*    2832                           .076666496694088 0.
*        0.
GRID*    2833                           .095833122730255 0.
*        0.
GRID*    2834                           .114999733865261 0.
*        0.
GRID*    2835                           .134166374802589 0.
*        0.
GRID*    2836                           .153332993388176 0.
*        0.
GRID*    2837                            -6.702398192-9 .153332993388176
*        0.
GRID*    2838                            -5.8645985845-9.134166374802589
*        0.
GRID*    2839                            -5.026798533-9 .114999741315842
*        0.
GRID*    2840                            -4.1889989255-9.095833122730255
*        0.
GRID*    2841                            -3.351199096-9 .076666496694088
*        0.
GRID*    2842                            -2.5133992665-9.057499870657921
*        0.
GRID*    2843                            -1.6755998811-9.038333255797625
*        0.
GRID*    2844                            -8.37799774-10 .019166624173522
*        0.
GRID*    2845                           .153332993388176 .0635130032897
*        0.
GRID*    2846                           .138362929224968.078482933342457
*        0.
GRID*    2847                            .12339286506176.093452870845795
*        0.
GRID*    2848                           .108422800898552.108422800898552
*        0.
$ ... 1618 like lines cut
GRID     3658            0.      0.      .4
GRID*    3659                           .019166624173522 0.
*        .4
GRID*    3660                           .038333248347044 0.
*        .4
GRID*    3661                           .057499870657921 0.
*        .4
GRID*    3662                           .076666496694088 0.
*        .4
GRID*    3663                           .095833122730255 0.
*        .4
GRID*    3664                           .114999733865261 0.
*        .4
GRID*    3665                           .134166374802589 0.
*        .4
GRID*    3666                           .153332993388176 0.
*        .4
GRID*    3667                            -6.702398192-9 .153332993388176
*        .4
GRID*    3668                            -5.8645985845-9.134166374802589
*        .4
GRID*    3669                            -5.026798533-9 .114999741315842
*        .4
GRID*    3670                            -4.1889989255-9.095833122730255
*        .4
GRID*    3671                            -3.351199096-9 .076666496694088
*        .4
GRID*    3672                            -2.5133992665-9.057499870657921
*        .4
GRID*    3673                            -1.6755998811-9.038333255797625
*        .4
GRID*    3674                            -8.37799774-10 .019166624173522
*        .4
GRID*    3675                           .153332993388176 .0635130032897
*        .4
GRID*    3676                           .138362929224968.078482933342457
*        .4
GRID*    3677                            .12339286506176.093452870845795
*        .4
GRID*    3678                           .108422800898552.108422800898552
*        .4
$ ... 1616 like lines cut
GRID     4488            0.      0.      .6
GRID*    4489                           .019166624173522 0.
*        .6
GRID*    4490                           .038333248347044 0.
*        .6
GRID*    4491                           .057499870657921 0.
*        .6
GRID*    4492                           .076666496694088 0.
*        .6
GRID*    4493                           .095833122730255 0.
*        .6
GRID*    4494                           .114999733865261 0.
*        .6
GRID*    4495                           .134166374802589 0.
*        .6
GRID*    4496                           .153332993388176 0.
*        .6
GRID*    4497                            -6.702398192-9 .153332993388176
*        .6
GRID*    4498                            -5.8645985845-9.134166374802589
*        .6
GRID*    4499                            -5.026798533-9 .114999741315842
*        .6
GRID*    4500                            -4.1889989255-9.095833122730255
*        .6
GRID*    4501                            -3.351199096-9 .076666496694088
*        .6
GRID*    4502                            -2.5133992665-9.057499870657921
*        .6
GRID*    4503                            -1.6755998811-9.038333255797625
*        .6
GRID*    4504                            -8.37799774-10 .019166624173522
*        .6
GRID*    4505                           .153332993388176 .0635130032897
*        .6
GRID*    4506                           .138362929224968.078482933342457
*        .6
GRID*    4507                            .12339286506176.093452870845795
*        .6
GRID*    4508                           .108422800898552.108422800898552
*        .6
$ ... 3728 like lines cut
$ Loads for Load Case : LoadCase
SPCADD   2       1
$ Displacement Constraints of Load Set : SPC_123456
SPC1     1       123456  1839    THRU    1850
$ Referenced Coordinate Frames
ENDDATA 030f2ed9
