$ MSC.Nastran input file created on April     06, 2021 at 13:39:11 by
$ Patran 2020  (Student Edition)
$ Direct Text Input for Nastran System Cell Section
$ Direct Text Input for File Management Section
$ Direct Text Input for Executive Control
$ Buckling Analysis, Database
SOL 105
CEND
$ Direct Text Input for Global Case Control Data
TITLE = Estudio carga critica pandeo Seccion 1
ECHO = NONE
SUBCASE 1
   SUBTITLE=Pandeo
   SPC = 2
   LOAD = 2
   SPCFORCES(SORT1,REAL)=ALL
SUBCASE 2
   SUBTITLE=Pandeo
   SPC = 2
   METHOD = 1
   VECTOR(PLOT,SORT1,REAL)=ALL
   SPCFORCES(SORT1,REAL)=ALL
   STATSUB = 1
$ Direct Text Input for this Subcase
BEGIN BULK
$ Direct Text Input for Bulk Data
PARAM    POST    0
PARAM   PRTMAXIM YES
EIGRL    1                       1       0
$ Elements and Element Properties for region : 1D_Beam_Aluminio
PBARL    1       1               ROD
         .01112
$ Pset: "1D_Beam_Aluminio" will be imported as: "pbarl.1"
CBAR     1       1       1       2       1.      0.      0.
CBAR     2       1       2       3       1.      0.      0.
CBAR     3       1       3       4       1.      0.      0.
CBAR     4       1       4       5       1.      0.      0.
CBAR     5       1       5       6       1.      0.      0.
CBAR     6       1       6       7       1.      0.      0.
CBAR     7       1       7       8       1.      0.      0.
CBAR     8       1       8       9       1.      0.      0.
CBAR     9       1       9       10      1.      0.      0.
CBAR     10      1       10      11      1.      0.      0.
CBAR     11      1       11      12      1.      0.      0.
CBAR     12      1       12      13      1.      0.      0.
CBAR     13      1       13      14      1.      0.      0.
CBAR     14      1       14      15      1.      0.      0.
CBAR     15      1       15      16      1.      0.      0.
CBAR     16      1       16      17      1.      0.      0.
CBAR     17      1       17      18      1.      0.      0.
CBAR     18      1       18      19      1.      0.      0.
CBAR     19      1       19      20      1.      0.      0.
CBAR     20      1       20      21      1.      0.      0.
$ ... 80 like lines cut
$ Referenced Material Records
$ Material Record : Aluminio
$ Description of Material : Date: 06-Apr-21           Time: 13:21:42
MAT1*    1               7.3200001+10                    .33
*        2800.
$ Nodes of the Entire Model
GRID     1               0.      0.      0.
GRID*    2                               0.              0.
*       .010999999940395
GRID*    3                               0.              0.
*       .021999999880791
GRID*    4                               0.              0.
*       .032999999821186
GRID*    5                               0.              0.
*       .043999999761581
GRID*    6                               0.              0.
*       .055000007152557
GRID*    7                               0.              0.
*       .066000007092953
GRID*    8                               0.              0.
*       .076999999582767
GRID*    9                               0.              0.
*       .087999999523163
GRID*    10                              0.              0.
*       .099000006914139
GRID*    11                              0.              0.
*       .110000006854534
GRID*    12                              0.              0.
*       .120999991893768
GRID*    13                              0.              0.
*       .131999984383583
GRID*    14                              0.              0.
*       .142999976873398
GRID*    15                              0.              0.
*       .153999984264374
GRID*    16                              0.              0.
*        .16499999165535
GRID*    17                              0.              0.
*       .175999984145164
GRID*    18                              0.              0.
*        .18699999153614
GRID*    19                              0.              0.
*       .197999998927116
GRID*    20                              0.              0.
*       .208999991416931
GRID*    21                              0.              0.
*       .219999998807907
$ ... 160 like lines cut
$ Loads for Load Case : Pandeo
SPCADD   2       1       3
LOAD     2       1.      1.      1
$ Displacement Constraints of Load Set : BC_Infrerior_1236
SPC1     1       1236    1
$ Displacement Constraints of Load Set : BC_Superior_12
SPC1     3       12      101
$ Nodal Forces of Load Set : Load_Pandeo
FORCE    1       101     0       1.      0.      0.      -1.
$ Referenced Coordinate Frames
ENDDATA d6810c27
